# File generated by Flopy version 3.6.0 on 03/18/2025 at 15:16:53.
BEGIN options
END options

BEGIN griddata
  icelltype
    CONSTANT  0
  k
    INTERNAL  FACTOR  1.0
    6.14915349E-05  6.02994033E-05  5.94087734E-05  5.81134577E-05  5.79970296E-05  5.80941674E-05  5.83781003E-05  5.88047093E-05  5.92766608E-05  5.98108004E-05  6.03859846E-05  6.11179014E-05  6.12313976E-05  6.27494001E-05  6.50833004E-05  6.73025506E-05  6.90041121E-05  7.08098729E-05  7.32428227E-05  7.59426789E-05
    7.81007391E-05  7.96542329E-05  8.18819806E-05  8.43457559E-05  8.78667890E-05  9.11616289E-05  9.43677984E-05  9.76227469E-05  1.02257657E-04  1.06241420E-04  1.11021545E-04  1.14752013E-04  1.16990152E-04  1.19195197E-04  1.22100911E-04  1.24858298E-04  1.28448120E-04  1.31583580E-04  1.34700145E-04  1.38187768E-04
    1.39665033E-04  1.40051149E-04  1.39807395E-04  1.40024836E-04  1.39622371E-04  1.37122000E-04  1.35605593E-04  1.32185902E-04  1.27376051E-04  1.22164913E-04  1.17924709E-04  1.14061406E-04  1.11925868E-04  1.10325601E-04  1.09063923E-04  1.08393471E-04  1.07361391E-04  1.05706393E-04  1.03150398E-04  9.95739171E-05
    9.59270803E-05  9.26259678E-05  9.07520827E-05  9.13630865E-05  9.30755783E-05  9.30284524E-05  9.26813505E-05  9.29962353E-05  9.30002704E-05  9.45921785E-05  9.67400217E-05  9.88592050E-05  1.01068062E-04  1.02900796E-04  1.03657319E-04  1.03850213E-04  1.03125307E-04  1.03161768E-04  1.02873417E-04  1.02992922E-04
    1.04200599E-04  1.05389372E-04  1.05101817E-04  1.04978711E-04  1.05073983E-04  1.05975405E-04  1.06696121E-04  1.07520596E-04  1.09719181E-04  1.11479990E-04  1.13462031E-04  1.17111072E-04  1.21167954E-04  1.27072739E-04  1.34093018E-04  1.43564935E-04  1.52057362E-04  1.60664467E-04  1.64504224E-04  1.67014178E-04
    1.70757236E-04  1.77395333E-04  1.78964136E-04  1.82156804E-04  1.84753851E-04  1.91329963E-04  1.95669817E-04  2.01252979E-04  2.06375254E-04  2.06949171E-04  2.07916487E-04  2.06465581E-04  2.03754454E-04  1.98128764E-04  1.96718772E-04  1.96414788E-04  1.99321368E-04  2.02618869E-04  2.04436841E-04  2.10090786E-04
    2.17297840E-04  2.26279943E-04  2.35191409E-04  2.45725558E-04  2.56626223E-04  2.69941572E-04  2.86213197E-04  3.00067721E-04  3.16395090E-04  3.31778279E-04  3.44617219E-04  3.55687717E-04  3.62179082E-04  3.72861701E-04  3.84917645E-04  4.00612034E-04  4.16370463E-04  4.32287565E-04  4.45436848E-04  4.48384268E-04
    4.53735486E-04  4.55406888E-04  4.56923589E-04  4.61985356E-04  4.64497227E-04  4.63556701E-04  4.59227543E-04  4.52781800E-04  4.48233069E-04  4.35166870E-04  4.23209435E-04  4.06653178E-04  3.87203425E-04  3.67509494E-04  3.50535358E-04  3.39911722E-04  3.26945530E-04  3.13826251E-04  2.95632765E-04  2.79535976E-04
    2.64586400E-04  2.45828443E-04  2.30626772E-04  2.17258453E-04  2.07244919E-04  1.95579378E-04  1.85040691E-04  1.75989575E-04  1.65246292E-04  1.53481356E-04  1.45355094E-04  1.40575848E-04  1.36107240E-04  1.32864913E-04  1.32054340E-04  1.30656757E-04  1.31461683E-04  1.32379302E-04  1.33495647E-04  1.35114975E-04
    1.37910986E-04  1.40824826E-04  1.41843355E-04  1.44561592E-04  1.47021278E-04  1.47165929E-04  1.49527931E-04  1.51588908E-04  1.53292297E-04  1.54433118E-04  1.55450800E-04  1.58005430E-04  1.60564921E-04  1.61879323E-04  1.61655500E-04  1.60431159E-04  1.59136829E-04  1.55959749E-04  1.52461284E-04  1.47189426E-04
    5.99812000E-05  5.88765587E-05  5.87077868E-05  5.77305944E-05  5.75174442E-05  5.77652710E-05  5.82580640E-05  5.91311521E-05  5.99173818E-05  6.13240905E-05  6.24689187E-05  6.40263067E-05  6.61287195E-05  6.87635880E-05  7.08514000E-05  7.21791482E-05  7.33757834E-05  7.50600566E-05  7.71809953E-05  7.89104967E-05
    8.07708629E-05  8.38548742E-05  8.72001080E-05  9.10613836E-05  9.63794734E-05  1.01194495E-04  1.05862629E-04  1.10470912E-04  1.13861520E-04  1.16655213E-04  1.19719951E-04  1.22858627E-04  1.27201683E-04  1.31504803E-04  1.34161270E-04  1.36558016E-04  1.38549050E-04  1.40023132E-04  1.41725065E-04  1.42229669E-04
    1.41788823E-04  1.41215827E-04  1.42075623E-04  1.45301083E-04  1.45605181E-04  1.42000581E-04  1.36311769E-04  1.30724396E-04  1.24519982E-04  1.18319318E-04  1.14778598E-04  1.12031214E-04  1.10239699E-04  1.08707764E-04  1.07479327E-04  1.06580649E-04  1.05811789E-04  1.03934688E-04  1.02330301E-04  1.01178807E-04
    9.91721584E-05  9.81768467E-05  9.82099782E-05  9.81601343E-05  9.93142582E-05  1.00995751E-04  1.01995929E-04  1.04343319E-04  1.05448629E-04  1.07104446E-04  1.07885043E-04  1.08300907E-04  1.07047756E-04  1.06313854E-04  1.07242600E-04  1.07736401E-04  1.07625317E-04  1.07893338E-04  1.07237082E-04  1.05276361E-04
    1.05003238E-04  1.06442675E-04  1.07493197E-04  1.08587470E-04  1.11156758E-04  1.15242395E-04  1.17004205E-04  1.19138688E-04  1.22513659E-04  1.25937241E-04  1.30197517E-04  1.37236473E-04  1.43803685E-04  1.52385581E-04  1.60012614E-04  1.68083968E-04  1.74108387E-04  1.79581656E-04  1.84625731E-04  1.92250346E-04
    1.99295630E-04  2.06981611E-04  2.13029212E-04  2.20252043E-04  2.28339840E-04  2.36915955E-04  2.41036059E-04  2.41365705E-04  2.42277372E-04  2.40085398E-04  2.39414047E-04  2.35507681E-04  2.29099150E-04  2.24175959E-04  2.21639412E-04  2.23029514E-04  2.28550398E-04  2.33859200E-04  2.38141754E-04  2.45416988E-04
    2.54033456E-04  2.63015628E-04  2.72551714E-04  2.86805305E-04  3.01103539E-04  3.19548086E-04  3.35830521E-04  3.46164567E-04  3.58321854E-04  3.68881659E-04  3.77957211E-04  3.85092725E-04  3.93971954E-04  3.99250346E-04  4.11149129E-04  4.25998349E-04  4.39564878E-04  4.49676013E-04  4.58773326E-04  4.59979765E-04
    4.62380593E-04  4.62910076E-04  4.61086007E-04  4.56202611E-04  4.47519950E-04  4.40403329E-04  4.35367540E-04  4.31213690E-04  4.20030243E-04  4.03980746E-04  3.85358908E-04  3.69397513E-04  3.57690074E-04  3.46061635E-04  3.30168762E-04  3.18369970E-04  3.04264382E-04  2.88371998E-04  2.68694251E-04  2.52968329E-04
    2.38917404E-04  2.24643169E-04  2.08325300E-04  1.95045230E-04  1.82326846E-04  1.69755975E-04  1.59010566E-04  1.50004682E-04  1.41107568E-04  1.34667411E-04  1.31234595E-04  1.26792605E-04  1.23516567E-04  1.21633136E-04  1.21823152E-04  1.21724975E-04  1.21043943E-04  1.21884425E-04  1.23619051E-04  1.24977358E-04
    1.26299853E-04  1.28273902E-04  1.30170832E-04  1.31924199E-04  1.32826318E-04  1.34564202E-04  1.36653014E-04  1.36829083E-04  1.36651319E-04  1.38223323E-04  1.39854443E-04  1.41847489E-04  1.44505355E-04  1.43367363E-04  1.41206154E-04  1.39349849E-04  1.36336143E-04  1.33924023E-04  1.31600416E-04  1.27879645E-04
    6.03868876E-05  5.93671548E-05  5.85996962E-05  5.79863551E-05  5.80674958E-05  5.85987297E-05  5.93201911E-05  6.02574832E-05  6.13724942E-05  6.35991353E-05  6.61100855E-05  6.88759612E-05  7.14271314E-05  7.36070304E-05  7.40569061E-05  7.49976455E-05  7.58472792E-05  7.70000533E-05  7.97447778E-05  8.29999474E-05
    8.62743993E-05  9.02493527E-05  9.41985155E-05  1.00096225E-04  1.05713688E-04  1.09872944E-04  1.13856684E-04  1.16931536E-04  1.19186218E-04  1.20579515E-04  1.24939904E-04  1.30224195E-04  1.33303091E-04  1.35400944E-04  1.37029834E-04  1.40464621E-04  1.43371451E-04  1.45046097E-04  1.44489872E-04  1.42629684E-04
    1.42099889E-04  1.43397568E-04  1.46212026E-04  1.47531584E-04  1.44675819E-04  1.38021456E-04  1.31165569E-04  1.24261505E-04  1.18660904E-04  1.14708648E-04  1.13039436E-04  1.10367574E-04  1.08175061E-04  1.06525210E-04  1.05464288E-04  1.04583490E-04  1.04881759E-04  1.05129313E-04  1.04575328E-04  1.05642447E-04
    1.06490965E-04  1.06613354E-04  1.07441769E-04  1.09159486E-04  1.11749260E-04  1.14659658E-04  1.17716383E-04  1.20596700E-04  1.20125146E-04  1.19275041E-04  1.18181449E-04  1.17949712E-04  1.18003832E-04  1.17631980E-04  1.16819432E-04  1.15309960E-04  1.13695724E-04  1.12972155E-04  1.11896092E-04  1.10696651E-04
    1.11553817E-04  1.14497631E-04  1.17095855E-04  1.20552825E-04  1.24799358E-04  1.29507697E-04  1.33311714E-04  1.37584200E-04  1.43118297E-04  1.48755606E-04  1.54319764E-04  1.61225858E-04  1.67691915E-04  1.75215401E-04  1.81616952E-04  1.90309549E-04  1.98094803E-04  2.09742582E-04  2.19724580E-04  2.25537264E-04
    2.33961873E-04  2.46257750E-04  2.55392765E-04  2.68515301E-04  2.78301543E-04  2.77994833E-04  2.75322068E-04  2.75426676E-04  2.76547140E-04  2.74272000E-04  2.71666242E-04  2.64744786E-04  2.60596380E-04  2.56524502E-04  2.56714566E-04  2.58216537E-04  2.63913786E-04  2.67037962E-04  2.68856683E-04  2.74533856E-04
    2.84502649E-04  2.97575813E-04  3.13232756E-04  3.28778504E-04  3.44825593E-04  3.58881560E-04  3.71207155E-04  3.78689802E-04  3.88956791E-04  3.98273462E-04  4.05389016E-04  4.12405013E-04  4.21804033E-04  4.29747194E-04  4.33646503E-04  4.38602118E-04  4.43518506E-04  4.45675909E-04  4.44966975E-04  4.44610896E-04
    4.47461489E-04  4.49525865E-04  4.40186085E-04  4.32083837E-04  4.25201857E-04  4.18379111E-04  4.07442162E-04  3.96025466E-04  3.86278518E-04  3.70996958E-04  3.57182559E-04  3.44727384E-04  3.29829646E-04  3.12438246E-04  2.94274668E-04  2.78469668E-04  2.61075789E-04  2.44953395E-04  2.30982840E-04  2.16393565E-04
    2.02976218E-04  1.88393293E-04  1.73898590E-04  1.61583870E-04  1.51662203E-04  1.42390612E-04  1.35487204E-04  1.28700859E-04  1.23227311E-04  1.18670237E-04  1.13968006E-04  1.09951355E-04  1.08116052E-04  1.07966818E-04  1.08793220E-04  1.09501363E-04  1.09083250E-04  1.09246772E-04  1.09989156E-04  1.11364950E-04
    1.12208538E-04  1.13911293E-04  1.15613851E-04  1.16638509E-04  1.16904104E-04  1.16752411E-04  1.16928542E-04  1.17412942E-04  1.18613644E-04  1.20393867E-04  1.20569333E-04  1.22474738E-04  1.22184630E-04  1.21615894E-04  1.21698008E-04  1.21261812E-04  1.20059759E-04  1.18971896E-04  1.18120864E-04  1.16085661E-04
    6.08613783E-05  5.97636376E-05  5.93945770E-05  5.91959801E-05  6.00354308E-05  6.05111298E-05  6.15982261E-05  6.25730733E-05  6.34801888E-05  6.54989896E-05  6.77874309E-05  7.00108331E-05  7.06532034E-05  7.08167139E-05  7.07671608E-05  7.25066258E-05  7.52840349E-05  7.88936834E-05  8.22297968E-05  8.64807727E-05
    9.01903291E-05  9.34833303E-05  9.72772429E-05  1.02214487E-04  1.06585715E-04  1.11039208E-04  1.14446725E-04  1.18527992E-04  1.22918614E-04  1.28109032E-04  1.31977102E-04  1.33032158E-04  1.35843482E-04  1.39743593E-04  1.42140553E-04  1.43769302E-04  1.45509401E-04  1.45964393E-04  1.45307134E-04  1.45840298E-04
    1.46746275E-04  1.46096397E-04  1.45630821E-04  1.43158391E-04  1.38256390E-04  1.32338095E-04  1.27445908E-04  1.21769878E-04  1.16886111E-04  1.12037118E-04  1.09071903E-04  1.05623324E-04  1.03764979E-04  1.03222070E-04  1.03991528E-04  1.04956778E-04  1.04702137E-04  1.06411839E-04  1.08779737E-04  1.11996222E-04
    1.15328130E-04  1.17276759E-04  1.19185459E-04  1.22169944E-04  1.26544742E-04  1.30393415E-04  1.30654781E-04  1.30758402E-04  1.29566470E-04  1.30264583E-04  1.30600131E-04  1.30051483E-04  1.29077018E-04  1.26677865E-04  1.23220470E-04  1.22315205E-04  1.21724946E-04  1.22857855E-04  1.22922014E-04  1.22538388E-04
    1.23443655E-04  1.26469144E-04  1.31484778E-04  1.36766293E-04  1.41817881E-04  1.48327860E-04  1.55582154E-04  1.62461295E-04  1.67671663E-04  1.74321693E-04  1.81125484E-04  1.87402388E-04  1.91276142E-04  1.98542391E-04  2.07412701E-04  2.18600203E-04  2.31598992E-04  2.42960939E-04  2.52711592E-04  2.60784570E-04
    2.72332752E-04  2.85868182E-04  2.95525308E-04  3.04134761E-04  3.07601756E-04  3.09250537E-04  3.08844649E-04  3.11203722E-04  3.10667726E-04  3.02272913E-04  2.96345061E-04  2.87470205E-04  2.83175081E-04  2.80838746E-04  2.81523632E-04  2.80934662E-04  2.82793856E-04  2.86459262E-04  2.93584088E-04  3.07423437E-04
    3.20464389E-04  3.32754572E-04  3.45806335E-04  3.62988691E-04  3.75093478E-04  3.88526964E-04  4.03926141E-04  4.12451677E-04  4.20006275E-04  4.26193990E-04  4.35930688E-04  4.42598710E-04  4.51442705E-04  4.52983012E-04  4.45631133E-04  4.39815199E-04  4.32398807E-04  4.33288252E-04  4.35784743E-04  4.35117579E-04
    4.32638389E-04  4.30602906E-04  4.25697693E-04  4.18308727E-04  4.10147753E-04  3.97475935E-04  3.87058801E-04  3.73582412E-04  3.59861856E-04  3.43789991E-04  3.26176207E-04  3.03287102E-04  2.80163001E-04  2.60774182E-04  2.43232310E-04  2.30122781E-04  2.15822905E-04  2.02340856E-04  1.91617186E-04  1.81263195E-04
    1.70590819E-04  1.58025158E-04  1.46841582E-04  1.36730858E-04  1.28254850E-04  1.20368583E-04  1.14156711E-04  1.08394207E-04  1.03472870E-04  1.00837955E-04  9.88742685E-05  9.72625514E-05  9.69052598E-05  9.71937874E-05  9.79954727E-05  9.76146685E-05  9.69881611E-05  9.70143170E-05  9.67972105E-05  9.63778134E-05
    9.71610107E-05  9.94504951E-05  1.00924280E-04  1.01690754E-04  1.01354892E-04  1.01027201E-04  1.01111220E-04  1.00685979E-04  1.01881775E-04  1.03153491E-04  1.04522334E-04  1.07699569E-04  1.09598438E-04  1.09568164E-04  1.09258296E-04  1.08726534E-04  1.09910288E-04  1.10003006E-04  1.08658959E-04  1.07225607E-04
    6.19799674E-05  6.15156554E-05  6.18442613E-05  6.17387862E-05  6.24268953E-05  6.23924324E-05  6.25322436E-05  6.32774082E-05  6.42501342E-05  6.53072388E-05  6.55254525E-05  6.46525984E-05  6.41219709E-05  6.50726044E-05  6.74153243E-05  7.04894231E-05  7.38134899E-05  7.75091279E-05  8.13786093E-05  8.46368083E-05
    8.79311539E-05  9.32373973E-05  9.84394366E-05  1.03843908E-04  1.09261935E-04  1.14738148E-04  1.20242032E-04  1.25205073E-04  1.29684121E-04  1.32649130E-04  1.36502648E-04  1.39989770E-04  1.41490934E-04  1.43074416E-04  1.43391538E-04  1.44808030E-04  1.46141846E-04  1.46379897E-04  1.47244076E-04  1.47227393E-04
    1.44850809E-04  1.41681509E-04  1.39117441E-04  1.35874425E-04  1.31559665E-04  1.26503756E-04  1.23059735E-04  1.17528119E-04  1.14160588E-04  1.10218835E-04  1.08470185E-04  1.06501243E-04  1.06653229E-04  1.08279821E-04  1.10197698E-04  1.10901970E-04  1.12634109E-04  1.16717906E-04  1.21174500E-04  1.24119725E-04
    1.26577365E-04  1.29387042E-04  1.33537597E-04  1.36647624E-04  1.38467655E-04  1.38647404E-04  1.37715990E-04  1.38274764E-04  1.37397862E-04  1.38451548E-04  1.40171866E-04  1.39554855E-04  1.38284209E-04  1.37419901E-04  1.36723580E-04  1.36043875E-04  1.34921415E-04  1.35212313E-04  1.35579498E-04  1.37668248E-04
    1.41002624E-04  1.45230322E-04  1.48721421E-04  1.54294450E-04  1.62717363E-04  1.70730683E-04  1.76226601E-04  1.81914048E-04  1.90782599E-04  1.97342699E-04  2.03626762E-04  2.10224498E-04  2.14915380E-04  2.24577021E-04  2.34377416E-04  2.45052413E-04  2.54026594E-04  2.66232939E-04  2.77659776E-04  2.90253866E-04
    3.06891193E-04  3.24284030E-04  3.32918346E-04  3.35153245E-04  3.37036337E-04  3.36249325E-04  3.29549623E-04  3.25921346E-04  3.20798772E-04  3.13522062E-04  3.10254245E-04  3.04219037E-04  2.97107931E-04  2.92355660E-04  2.90369548E-04  2.90836699E-04  2.96398734E-04  3.08807340E-04  3.23400589E-04  3.42346933E-04
    3.53072126E-04  3.61803044E-04  3.68834947E-04  3.78928608E-04  3.94600535E-04  4.10441326E-04  4.20053369E-04  4.24598596E-04  4.37988961E-04  4.45987254E-04  4.54462352E-04  4.59152159E-04  4.56572205E-04  4.52079502E-04  4.42288649E-04  4.41276563E-04  4.37700585E-04  4.32564935E-04  4.34014579E-04  4.29910269E-04
    4.23901788E-04  4.16577747E-04  4.05715382E-04  3.91867913E-04  3.80224107E-04  3.67927323E-04  3.52335196E-04  3.32137330E-04  3.13100213E-04  2.93072365E-04  2.72434693E-04  2.55101350E-04  2.38915845E-04  2.22989159E-04  2.07567911E-04  1.93449751E-04  1.80679005E-04  1.70350290E-04  1.60693225E-04  1.48121652E-04
    1.36665413E-04  1.24729287E-04  1.16499843E-04  1.09677136E-04  1.05092205E-04  1.00064613E-04  9.57589612E-05  9.28011313E-05  8.91634516E-05  8.65853962E-05  8.52564389E-05  8.49548168E-05  8.50277587E-05  8.45300348E-05  8.46018277E-05  8.40793065E-05  8.34162296E-05  8.20541243E-05  8.12088057E-05  8.22399786E-05
    8.44108493E-05  8.57745168E-05  8.62604727E-05  8.72231042E-05  8.75200565E-05  8.73750988E-05  8.80974888E-05  8.93833252E-05  9.07453476E-05  9.41351842E-05  9.79079534E-05  1.01293627E-04  1.03257900E-04  1.02724386E-04  1.02519490E-04  1.02880264E-04  1.03441407E-04  1.02790097E-04  1.02956991E-04  1.02133286E-04
    6.59659746E-05  6.56105323E-05  6.48964053E-05  6.33651062E-05  6.26664319E-05  6.15360234E-05  6.12708180E-05  6.16544371E-05  6.15300372E-05  6.19879156E-05  6.19411382E-05  6.17036195E-05  6.19927558E-05  6.42105716E-05  6.66822821E-05  7.06623977E-05  7.43574947E-05  7.77309606E-05  8.10638128E-05  8.44675446E-05
    8.96884982E-05  9.56779466E-05  1.01575258E-04  1.07829835E-04  1.16028815E-04  1.22029145E-04  1.24882339E-04  1.27328197E-04  1.31378134E-04  1.34481322E-04  1.37476923E-04  1.39500552E-04  1.41507665E-04  1.43182025E-04  1.45560831E-04  1.48394285E-04  1.50374203E-04  1.49274352E-04  1.47394933E-04  1.45891382E-04
    1.43514211E-04  1.39617002E-04  1.37144791E-04  1.33729928E-04  1.29134366E-04  1.26319453E-04  1.23517051E-04  1.20710122E-04  1.19263520E-04  1.18122333E-04  1.17897785E-04  1.17323049E-04  1.18000281E-04  1.18150016E-04  1.19373467E-04  1.21344033E-04  1.23879052E-04  1.26289492E-04  1.29002337E-04  1.31373896E-04
    1.35227134E-04  1.39432037E-04  1.42698343E-04  1.43923651E-04  1.45869210E-04  1.46196453E-04  1.46396913E-04  1.49781952E-04  1.51594232E-04  1.51873436E-04  1.50931231E-04  1.50244681E-04  1.49453931E-04  1.49550119E-04  1.48907920E-04  1.48656401E-04  1.49474415E-04  1.53618501E-04  1.55380314E-04  1.55429084E-04
    1.58175183E-04  1.62532215E-04  1.69976536E-04  1.77426472E-04  1.83617204E-04  1.88347013E-04  1.92222807E-04  2.01595584E-04  2.10829696E-04  2.18526454E-04  2.22917130E-04  2.30833019E-04  2.36991755E-04  2.42912961E-04  2.49589270E-04  2.59194153E-04  2.67092850E-04  2.80935169E-04  2.98789690E-04  3.16712386E-04
    3.35321936E-04  3.51977644E-04  3.57305673E-04  3.54806248E-04  3.51170584E-04  3.44887657E-04  3.39774743E-04  3.34729925E-04  3.27108381E-04  3.18528802E-04  3.11230687E-04  3.03755125E-04  2.96297466E-04  2.92463851E-04  2.93627728E-04  3.00193989E-04  3.11429038E-04  3.26701374E-04  3.44660416E-04  3.60258200E-04
    3.67447329E-04  3.73281223E-04  3.76184865E-04  3.87188523E-04  3.97554690E-04  4.11282003E-04  4.23763974E-04  4.33163997E-04  4.39274383E-04  4.40736728E-04  4.42995966E-04  4.36422841E-04  4.33603676E-04  4.35521087E-04  4.33182333E-04  4.29667412E-04  4.22709911E-04  4.19783750E-04  4.16023159E-04  4.07038789E-04
    4.01326498E-04  3.91625044E-04  3.75474485E-04  3.60008039E-04  3.45664928E-04  3.29672322E-04  3.08638398E-04  2.88515348E-04  2.69643797E-04  2.51026463E-04  2.34131667E-04  2.18834908E-04  2.03105743E-04  1.87175136E-04  1.72372759E-04  1.59674743E-04  1.47458997E-04  1.36219466E-04  1.25256362E-04  1.15062974E-04
    1.07614708E-04  1.01692460E-04  9.62142099E-05  9.18470070E-05  8.78153875E-05  8.38994781E-05  8.12079569E-05  7.85178699E-05  7.56350324E-05  7.43448603E-05  7.30445150E-05  7.10924491E-05  6.95458154E-05  6.89447938E-05  6.92922057E-05  6.92231870E-05  6.94964221E-05  7.07264282E-05  7.17807651E-05  7.25845045E-05
    7.33586544E-05  7.47662418E-05  7.58893092E-05  7.70031394E-05  7.72277154E-05  7.77849765E-05  7.95188573E-05  8.24963588E-05  8.62939101E-05  8.96506350E-05  9.24347220E-05  9.45457504E-05  9.57458601E-05  9.61442860E-05  9.71657319E-05  9.85559581E-05  9.88498925E-05  9.92491999E-05  9.90101838E-05  9.86294071E-05
    6.86827879E-05  6.68674820E-05  6.52484098E-05  6.29160135E-05  6.14926828E-05  6.05393472E-05  5.92562111E-05  5.87210909E-05  5.86223171E-05  5.87831490E-05  5.90816301E-05  6.04538313E-05  6.29384156E-05  6.54117806E-05  6.84720317E-05  7.16842687E-05  7.42303590E-05  7.68385694E-05  8.06931550E-05  8.57145234E-05
    9.10855642E-05  9.77995341E-05  1.04315035E-04  1.11378708E-04  1.17683241E-04  1.20963165E-04  1.23115064E-04  1.25496785E-04  1.29958135E-04  1.34091080E-04  1.38162182E-04  1.40207037E-04  1.42661392E-04  1.46011968E-04  1.49978145E-04  1.51601128E-04  1.50559487E-04  1.49266894E-04  1.49991942E-04  1.49280595E-04
    1.46300621E-04  1.43352813E-04  1.38933604E-04  1.35961453E-04  1.33469826E-04  1.32255943E-04  1.31961075E-04  1.30544417E-04  1.30442254E-04  1.29655568E-04  1.30427103E-04  1.30362865E-04  1.29188072E-04  1.28892892E-04  1.30452648E-04  1.31347788E-04  1.33909839E-04  1.36230370E-04  1.38632249E-04  1.41930092E-04
    1.46403205E-04  1.48765019E-04  1.49771541E-04  1.51014505E-04  1.51702085E-04  1.54414494E-04  1.57209299E-04  1.61965980E-04  1.61282239E-04  1.59152170E-04  1.57565075E-04  1.57754451E-04  1.58284227E-04  1.57814399E-04  1.57561597E-04  1.58225308E-04  1.59472256E-04  1.60658604E-04  1.62505690E-04  1.65693345E-04
    1.71444023E-04  1.77623933E-04  1.81442611E-04  1.84970472E-04  1.90895261E-04  1.98355841E-04  2.07053333E-04  2.14390404E-04  2.22439723E-04  2.29887456E-04  2.34703970E-04  2.39909805E-04  2.46907861E-04  2.52092428E-04  2.57079209E-04  2.67033750E-04  2.81468701E-04  2.98089055E-04  3.11608576E-04  3.26586680E-04
    3.40021520E-04  3.47485771E-04  3.47071048E-04  3.46311108E-04  3.43355408E-04  3.42038355E-04  3.36488127E-04  3.26430946E-04  3.16183072E-04  3.05358900E-04  2.99537137E-04  2.94313230E-04  2.93986465E-04  2.98287890E-04  3.05817592E-04  3.14861403E-04  3.28048292E-04  3.44258392E-04  3.52204646E-04  3.59378852E-04
    3.61761385E-04  3.68088597E-04  3.74860730E-04  3.86025332E-04  3.95931759E-04  4.08237955E-04  4.16771109E-04  4.16018043E-04  4.15027266E-04  4.14916172E-04  4.15354460E-04  4.13733120E-04  4.15400628E-04  4.12345671E-04  4.06694064E-04  4.06647213E-04  4.00893725E-04  3.94490224E-04  3.89946359E-04  3.75746121E-04
    3.61466807E-04  3.51468558E-04  3.40994244E-04  3.25366499E-04  3.08222092E-04  2.87994290E-04  2.64472615E-04  2.44073018E-04  2.24993297E-04  2.07140920E-04  1.91448263E-04  1.76192660E-04  1.63322571E-04  1.49532673E-04  1.36252068E-04  1.26564698E-04  1.15910958E-04  1.07322389E-04  9.94085328E-05  9.32300510E-05
    8.93019492E-05  8.54787817E-05  8.05417772E-05  7.65234623E-05  7.31234383E-05  6.93473487E-05  6.69872501E-05  6.56531523E-05  6.37524784E-05  6.12072923E-05  5.86784039E-05  5.70339830E-05  5.64683162E-05  5.70323687E-05  5.85328471E-05  5.97330559E-05  6.11513525E-05  6.25223412E-05  6.34183323E-05  6.46899916E-05
    6.63568879E-05  6.87714942E-05  7.00879734E-05  7.17716351E-05  7.25414154E-05  7.37013435E-05  7.58669332E-05  7.87915623E-05  8.21182679E-05  8.53398856E-05  8.69152959E-05  8.72133945E-05  8.75852548E-05  8.92176113E-05  9.14558120E-05  9.36915758E-05  9.48498953E-05  9.50222900E-05  9.67538651E-05  9.82042258E-05
    6.68794142E-05  6.47577118E-05  6.32537241E-05  6.15796734E-05  5.94374629E-05  5.74578822E-05  5.62815100E-05  5.59111735E-05  5.56400627E-05  5.65206554E-05  5.80904634E-05  5.95099745E-05  6.14825794E-05  6.38242361E-05  6.61278102E-05  6.91292224E-05  7.24355306E-05  7.69304198E-05  8.32012420E-05  8.96592858E-05
    9.54501096E-05  1.00811583E-04  1.06359071E-04  1.12505716E-04  1.16804916E-04  1.20968116E-04  1.25745386E-04  1.30859222E-04  1.33661916E-04  1.36379032E-04  1.38781747E-04  1.42003492E-04  1.46536622E-04  1.51044490E-04  1.54294482E-04  1.57819679E-04  1.57963907E-04  1.57315074E-04  1.56052677E-04  1.54748296E-04
    1.51614692E-04  1.46480824E-04  1.45952042E-04  1.46063909E-04  1.46422259E-04  1.47056622E-04  1.46310642E-04  1.44334982E-04  1.44817472E-04  1.43915313E-04  1.44890855E-04  1.43211314E-04  1.41806440E-04  1.42643426E-04  1.43567277E-04  1.43716232E-04  1.45135191E-04  1.46532379E-04  1.47619955E-04  1.48665724E-04
    1.51435261E-04  1.53636397E-04  1.55759457E-04  1.58595220E-04  1.62107398E-04  1.64106403E-04  1.63754461E-04  1.64638445E-04  1.60884973E-04  1.60757924E-04  1.62134384E-04  1.61755695E-04  1.60319772E-04  1.59964337E-04  1.60895604E-04  1.62418066E-04  1.64612644E-04  1.67273692E-04  1.69889100E-04  1.74096359E-04
    1.77974317E-04  1.80992377E-04  1.85206047E-04  1.90361690E-04  1.98059572E-04  2.05841866E-04  2.11334512E-04  2.19660039E-04  2.27166734E-04  2.32080672E-04  2.36303552E-04  2.40052008E-04  2.43771710E-04  2.52236198E-04  2.64489781E-04  2.77221753E-04  2.84715088E-04  2.91105799E-04  2.96733645E-04  3.01216076E-04
    3.05911252E-04  3.10106204E-04  3.13771341E-04  3.20445254E-04  3.22870510E-04  3.18964185E-04  3.10223993E-04  3.01530195E-04  2.95691895E-04  2.90223485E-04  2.94156187E-04  2.98622416E-04  3.07597195E-04  3.11971577E-04  3.16256739E-04  3.23116245E-04  3.35292223E-04  3.37851106E-04  3.40866194E-04  3.46930427E-04
    3.50195160E-04  3.57998955E-04  3.64002919E-04  3.73319432E-04  3.82301416E-04  3.86939550E-04  3.84974291E-04  3.76759761E-04  3.71449138E-04  3.71704019E-04  3.78021396E-04  3.83232350E-04  3.89889725E-04  3.89343554E-04  3.82233561E-04  3.76834517E-04  3.70374772E-04  3.60596402E-04  3.48659932E-04  3.38007627E-04
    3.31915846E-04  3.19944650E-04  3.02525635E-04  2.81806909E-04  2.57370812E-04  2.32852147E-04  2.10264006E-04  1.92951846E-04  1.76091933E-04  1.60326104E-04  1.46521661E-04  1.34781690E-04  1.24020521E-04  1.13920624E-04  1.03396645E-04  9.73901548E-05  9.18034873E-05  8.71275965E-05  8.28121314E-05  7.90294503E-05
    7.49659986E-05  6.97850933E-05  6.58515306E-05  6.30257799E-05  6.01201901E-05  5.74299389E-05  5.56155389E-05  5.31638044E-05  5.06526401E-05  4.87260658E-05  4.79960070E-05  4.78178999E-05  4.84337114E-05  4.93811596E-05  5.11029776E-05  5.32971810E-05  5.51326587E-05  5.69948054E-05  5.93518565E-05  6.14329951E-05
    6.36820684E-05  6.48107700E-05  6.60900877E-05  6.76408589E-05  6.91177381E-05  7.11310834E-05  7.39296856E-05  7.55515540E-05  7.67905205E-05  7.71108002E-05  7.80174793E-05  7.93276655E-05  8.01778302E-05  8.19408421E-05  8.47814498E-05  8.80072828E-05  9.07288330E-05  9.26487004E-05  9.36700547E-05  9.51674806E-05
    6.45158917E-05  6.30285198E-05  6.23583386E-05  5.95301688E-05  5.70245121E-05  5.43541766E-05  5.36702047E-05  5.41227320E-05  5.43842363E-05  5.58763706E-05  5.74002798E-05  5.91784349E-05  6.10416935E-05  6.32218193E-05  6.67905594E-05  7.20482548E-05  7.83730272E-05  8.36041614E-05  8.88405834E-05  9.34908501E-05
    9.94199965E-05  1.05136796E-04  1.10050729E-04  1.15591921E-04  1.21809385E-04  1.27360881E-04  1.32009930E-04  1.34538313E-04  1.36158340E-04  1.39736334E-04  1.43537629E-04  1.47987621E-04  1.52739075E-04  1.57409382E-04  1.61202362E-04  1.62989571E-04  1.63281447E-04  1.62131014E-04  1.61416205E-04  1.58952882E-04
    1.56927187E-04  1.56966680E-04  1.57873943E-04  1.58267442E-04  1.55614066E-04  1.53140803E-04  1.52565074E-04  1.52614914E-04  1.54184514E-04  1.53949480E-04  1.53841427E-04  1.51817646E-04  1.50125535E-04  1.51540054E-04  1.52497978E-04  1.51259215E-04  1.50273644E-04  1.50816074E-04  1.51659049E-04  1.54534977E-04
    1.59482235E-04  1.63580274E-04  1.66859996E-04  1.68352867E-04  1.69107161E-04  1.67384496E-04  1.64766785E-04  1.65530530E-04  1.64930205E-04  1.64176454E-04  1.64181373E-04  1.64427553E-04  1.63733083E-04  1.64066633E-04  1.64384417E-04  1.65573897E-04  1.66775444E-04  1.69780317E-04  1.72993995E-04  1.76517204E-04
    1.80610968E-04  1.84120906E-04  1.87092568E-04  1.92986107E-04  2.00002674E-04  2.07286989E-04  2.11458555E-04  2.16766155E-04  2.24487476E-04  2.28445994E-04  2.29672277E-04  2.36717265E-04  2.44782609E-04  2.54179548E-04  2.59089272E-04  2.63080429E-04  2.62064676E-04  2.62389884E-04  2.66405532E-04  2.71540167E-04
    2.76593239E-04  2.82588777E-04  2.85552112E-04  2.87825126E-04  2.87291666E-04  2.83127009E-04  2.77361274E-04  2.78240718E-04  2.83495019E-04  2.88560404E-04  2.96846779E-04  3.01044448E-04  3.04545996E-04  3.10452596E-04  3.16897722E-04  3.19103926E-04  3.19207183E-04  3.23667416E-04  3.24317164E-04  3.26918251E-04
    3.31675285E-04  3.37675976E-04  3.39155354E-04  3.43829657E-04  3.48029683E-04  3.47868246E-04  3.42009603E-04  3.38902724E-04  3.40508352E-04  3.41878064E-04  3.48926535E-04  3.52437483E-04  3.50545614E-04  3.49317139E-04  3.47785581E-04  3.45330679E-04  3.38523973E-04  3.29847718E-04  3.21331520E-04  3.07489029E-04
    2.93253122E-04  2.73715181E-04  2.50895083E-04  2.26044002E-04  2.03880882E-04  1.84553828E-04  1.65654362E-04  1.50007741E-04  1.35881373E-04  1.22167996E-04  1.10918655E-04  1.01791843E-04  9.38028206E-05  8.70605420E-05  8.12954528E-05  7.76033243E-05  7.53486078E-05  7.24019724E-05  6.83399708E-05  6.46038038E-05
    6.17460843E-05  5.85322748E-05  5.49154666E-05  5.16931534E-05  4.86251583E-05  4.59170734E-05  4.39150524E-05  4.25151415E-05  4.18143497E-05  4.15346060E-05  4.17901459E-05  4.23487895E-05  4.34524008E-05  4.53992099E-05  4.82761466E-05  5.10902524E-05  5.41044060E-05  5.61306568E-05  5.81726353E-05  5.91771308E-05
    6.01358024E-05  6.22859169E-05  6.39264566E-05  6.58975653E-05  6.73247051E-05  6.80998172E-05  6.88666676E-05  6.97732522E-05  7.01573783E-05  7.09316699E-05  7.16430459E-05  7.32994546E-05  7.53943518E-05  7.85331958E-05  8.22685112E-05  8.66352796E-05  9.02673747E-05  9.28233025E-05  9.63445032E-05  9.97364377E-05
    6.15898085E-05  6.06141973E-05  5.86461798E-05  5.56507879E-05  5.41396345E-05  5.36306418E-05  5.32917262E-05  5.41222686E-05  5.52526870E-05  5.69880243E-05  5.88956512E-05  6.18481676E-05  6.48236378E-05  7.03797365E-05  7.70008530E-05  8.27700780E-05  8.68470127E-05  9.04790717E-05  9.44578623E-05  9.87933427E-05
    1.04007916E-04  1.10183263E-04  1.17916787E-04  1.25377266E-04  1.31792336E-04  1.37636716E-04  1.42029747E-04  1.47391967E-04  1.53562750E-04  1.57554720E-04  1.60084556E-04  1.62507391E-04  1.65820237E-04  1.68351166E-04  1.69511440E-04  1.68976622E-04  1.67783995E-04  1.66990989E-04  1.66050539E-04  1.66349686E-04