# File generated by Flopy version 3.6.0 on 03/18/2025 at 15:16:53.
BEGIN options
END options

BEGIN dimensions
  MAXBOUND  200
END dimensions

BEGIN period  1
  1 1 19 1.00000000E-03
  1 2 19 1.00000000E-03
  1 3 19 1.00000000E-03
  1 4 19 1.00000000E-03
  1 5 19 1.00000000E-03
  1 6 19 1.00000000E-03
  1 7 19 1.00000000E-03
  1 8 19 1.00000000E-03
  1 9 19 1.00000000E-03
  1 10 19 1.00000000E-03
  1 11 19 1.00000000E-03
  1 12 19 1.00000000E-03
  1 13 19 1.00000000E-03
  1 14 19 1.00000000E-03
  1 15 19 1.00000000E-03
  1 16 19 1.00000000E-03
  1 17 19 1.00000000E-03
  1 18 19 1.00000000E-03
  1 19 19 1.00000000E-03
  1 20 19 1.00000000E-03
  1 21 19 1.00000000E-03
  1 22 19 1.00000000E-03
  1 23 19 1.00000000E-03
  1 24 19 1.00000000E-03
  1 25 19 1.00000000E-03
  1 26 19 1.00000000E-03
  1 27 19 1.00000000E-03
  1 28 19 1.00000000E-03
  1 29 19 1.00000000E-03
  1 30 19 1.00000000E-03
  1 31 19 1.00000000E-03
  1 32 19 1.00000000E-03
  1 33 19 1.00000000E-03
  1 34 19 1.00000000E-03
  1 35 19 1.00000000E-03
  1 36 19 1.00000000E-03
  1 37 19 1.00000000E-03
  1 38 19 1.00000000E-03
  1 39 19 1.00000000E-03
  1 40 19 1.00000000E-03
  1 41 19 1.00000000E-03
  1 42 19 1.00000000E-03
  1 43 19 1.00000000E-03
  1 44 19 1.00000000E-03
  1 45 19 1.00000000E-03
  1 46 19 1.00000000E-03
  1 47 19 1.00000000E-03
  1 48 19 1.00000000E-03
  1 49 19 1.00000000E-03
  1 50 19 1.00000000E-03
  1 51 19 1.00000000E-03
  1 52 19 1.00000000E-03
  1 53 19 1.00000000E-03
  1 54 19 1.00000000E-03
  1 55 19 1.00000000E-03
  1 56 19 1.00000000E-03
  1 57 19 1.00000000E-03
  1 58 19 1.00000000E-03
  1 59 19 1.00000000E-03
  1 60 19 1.00000000E-03
  1 61 19 1.00000000E-03
  1 62 19 1.00000000E-03
  1 63 19 1.00000000E-03
  1 64 19 1.00000000E-03
  1 65 19 1.00000000E-03
  1 66 19 1.00000000E-03
  1 67 19 1.00000000E-03
  1 68 19 1.00000000E-03
  1 69 19 1.00000000E-03
  1 70 19 1.00000000E-03
  1 71 19 1.00000000E-03
  1 72 19 1.00000000E-03
  1 73 19 1.00000000E-03
  1 74 19 1.00000000E-03
  1 75 19 1.00000000E-03
  1 76 19 1.00000000E-03
  1 77 19 1.00000000E-03
  1 78 19 1.00000000E-03
  1 79 19 1.00000000E-03
  1 80 19 1.00000000E-03
  1 81 19 1.00000000E-03
  1 82 19 1.00000000E-03
  1 83 19 1.00000000E-03
  1 84 19 1.00000000E-03
  1 85 19 1.00000000E-03
  1 86 19 1.00000000E-03
  1 87 19 1.00000000E-03
  1 88 19 1.00000000E-03
  1 89 19 1.00000000E-03
  1 90 19 1.00000000E-03
  1 91 19 1.00000000E-03
  1 92 19 1.00000000E-03
  1 93 19 1.00000000E-03
  1 94 19 1.00000000E-03
  1 95 19 1.00000000E-03
  1 96 19 1.00000000E-03
  1 97 19 1.00000000E-03
  1 98 19 1.00000000E-03
  1 99 19 1.00000000E-03
  1 100 19 1.00000000E-03
  1 101 19 1.00000000E-03
  1 102 19 1.00000000E-03
  1 103 19 1.00000000E-03
  1 104 19 1.00000000E-03
  1 105 19 1.00000000E-03
  1 106 19 1.00000000E-03
  1 107 19 1.00000000E-03
  1 108 19 1.00000000E-03
  1 109 19 1.00000000E-03
  1 110 19 1.00000000E-03
  1 111 19 1.00000000E-03
  1 112 19 1.00000000E-03
  1 113 19 1.00000000E-03
  1 114 19 1.00000000E-03
  1 115 19 1.00000000E-03
  1 116 19 1.00000000E-03
  1 117 19 1.00000000E-03
  1 118 19 1.00000000E-03
  1 119 19 1.00000000E-03
  1 120 19 1.00000000E-03
  1 121 19 1.00000000E-03
  1 122 19 1.00000000E-03
  1 123 19 1.00000000E-03
  1 124 19 1.00000000E-03
  1 125 19 1.00000000E-03
  1 126 19 1.00000000E-03
  1 127 19 1.00000000E-03
  1 128 19 1.00000000E-03
  1 129 19 1.00000000E-03
  1 130 19 1.00000000E-03
  1 131 19 1.00000000E-03
  1 132 19 1.00000000E-03
  1 133 19 1.00000000E-03
  1 134 19 1.00000000E-03
  1 135 19 1.00000000E-03
  1 136 19 1.00000000E-03
  1 137 19 1.00000000E-03
  1 138 19 1.00000000E-03
  1 139 19 1.00000000E-03
  1 140 19 1.00000000E-03
  1 141 19 1.00000000E-03
  1 142 19 1.00000000E-03
  1 143 19 1.00000000E-03
  1 144 19 1.00000000E-03
  1 145 19 1.00000000E-03
  1 146 19 1.00000000E-03
  1 147 19 1.00000000E-03
  1 148 19 1.00000000E-03
  1 149 19 1.00000000E-03
  1 150 19 1.00000000E-03
  1 151 19 1.00000000E-03
  1 152 19 1.00000000E-03
  1 153 19 1.00000000E-03
  1 154 19 1.00000000E-03
  1 155 19 1.00000000E-03
  1 156 19 1.00000000E-03
  1 157 19 1.00000000E-03
  1 158 19 1.00000000E-03
  1 159 19 1.00000000E-03
  1 160 19 1.00000000E-03
  1 161 19 1.00000000E-03
  1 162 19 1.00000000E-03
  1 163 19 1.00000000E-03
  1 164 19 1.00000000E-03
  1 165 19 1.00000000E-03
  1 166 19 1.00000000E-03
  1 167 19 1.00000000E-03
  1 168 19 1.00000000E-03
  1 169 19 1.00000000E-03
  1 170 19 1.00000000E-03
  1 171 19 1.00000000E-03
  1 172 19 1.00000000E-03
  1 173 19 1.00000000E-03
  1 174 19 1.00000000E-03
  1 175 19 1.00000000E-03
  1 176 19 1.00000000E-03
  1 177 19 1.00000000E-03
  1 178 19 1.00000000E-03
  1 179 19 1.00000000E-03
  1 180 19 1.00000000E-03
  1 181 19 1.00000000E-03
  1 182 19 1.00000000E-03
  1 183 19 1.00000000E-03
  1 184 19 1.00000000E-03
  1 185 19 1.00000000E-03
  1 186 19 1.00000000E-03
  1 187 19 1.00000000E-03
  1 188 19 1.00000000E-03
  1 189 19 1.00000000E-03
  1 190 19 1.00000000E-03
  1 191 19 1.00000000E-03
  1 192 19 1.00000000E-03
  1 193 19 1.00000000E-03
  1 194 19 1.00000000E-03
  1 195 19 1.00000000E-03
  1 196 19 1.00000000E-03
  1 197 19 1.00000000E-03
  1 198 19 1.00000000E-03
  1 199 19 1.00000000E-03
  1 200 19 1.00000000E-03
END period  1

