# File generated by Flopy version 3.6.0 on 03/26/2025 at 15:00:47.
BEGIN options
END options

BEGIN dimensions
  MAXBOUND  219
END dimensions

BEGIN period  1
  1 1 25
  1 201 25
  1 401 25
  1 601 25
  1 801 25
  1 1001 25
  1 1201 25
  1 1401 25
  1 1601 25
  1 1801 25
  1 2025 25
  1 2249 25
  1 2449 25
  1 2649 25
  1 2849 25
  1 3049 25
  1 3249 25
  1 3449 25
  1 3694 25
  1 4155 25
  1 4535 25
  1 4882 25
  1 5208 25
  1 5528 25
  1 5842 25
  1 6150 25
  1 6152 25
  1 6455 25
  1 6457 25
  1 6475 25
  1 6480 25
  1 6482 25
  1 6751 25
  1 6753 25
  1 6756 25
  1 6759 25
  1 7014 25
  1 7268 25
  1 7555 25
  1 7833 25
  1 8084 25
  1 8335 25
  1 8586 25
  1 8840 25
  1 9100 25
  1 9360 25
  1 9626 25
  1 9895 25
  1 10170 25
  1 10460 25
  1 10774 25
  1 11247 25
  1 11852 25
  1 12220 25
  1 12555 25
  1 12875 25
  1 13195 25
  1 13500 25
  1 13832 25
  1 14158 25
  1 14466 25
  1 14762 25
  1 15061 25
  1 15357 25
  1 15659 25
  1 15958 25
  1 16263 25
  1 16559 25
  1 16855 25
  1 17160 25
  1 17459 25
  1 17752 25
  1 18048 25
  1 18350 25
  1 18655 25
  1 18951 25
  1 19250 25
  1 19558 25
  1 19887 25
  1 20219 25
  1 20533 25
  1 20853 25
  1 21170 25
  1 21496 25
  1 21837 25
  1 22181 25
  1 22549 25
  1 22953 25
  1 23456 25
  1 24040 25
  1 24564 25
  1 25082 25
  1 25732 25
  1 26022 25
  1 26222 25
  1 26422 25
  1 26622 25
  1 26822 25
  1 27046 25
  1 27270 25
  1 27470 25
  1 27670 25
  1 27870 25
  1 28070 25
  1 28270 25
  1 28470 25
  1 28670 25
  1 28870 25
  1 200 16
  1 400 16
  1 600 16
  1 800 16
  1 1000 16
  1 1200 16
  1 1400 16
  1 1600 16
  1 1800 16
  1 2024 16
  1 2248 16
  1 2448 16
  1 2648 16
  1 2848 16
  1 3048 16
  1 3248 16
  1 3448 16
  1 3693 16
  1 4154 16
  1 4534 16
  1 4881 16
  1 5207 16
  1 5527 16
  1 5841 16
  1 6149 16
  1 6454 16
  1 6750 16
  1 7013 16
  1 7267 16
  1 7554 16
  1 7832 16
  1 8083 16
  1 8334 16
  1 8585 16
  1 8839 16
  1 9099 16
  1 9359 16
  1 9625 16
  1 9894 16
  1 10169 16
  1 10459 16
  1 10773 16
  1 11241 16
  1 11244 16
  1 11246 16
  1 11824 16
  1 11826 16
  1 11832 16
  1 11834 16
  1 11846 16
  1 11851 16
  1 12206 16
  1 12208 16
  1 12219 16
  1 12552 16
  1 12554 16
  1 12872 16
  1 12874 16
  1 13194 16
  1 13499 16
  1 13831 16
  1 14157 16
  1 14465 16
  1 14761 16
  1 15060 16
  1 15356 16
  1 15658 16
  1 15957 16
  1 16262 16
  1 16558 16
  1 16854 16
  1 17159 16
  1 17458 16
  1 17751 16
  1 18047 16
  1 18349 16
  1 18654 16
  1 18950 16
  1 19249 16
  1 19557 16
  1 19886 16
  1 20218 16
  1 20532 16
  1 20852 16
  1 21169 16
  1 21495 16
  1 21836 16
  1 22180 16
  1 22548 16
  1 22952 16
  1 23455 16
  1 24039 16
  1 24563 16
  1 25081 16
  1 25731 16
  1 26021 16
  1 26221 16
  1 26421 16
  1 26621 16
  1 26821 16
  1 27045 16
  1 27269 16
  1 27469 16
  1 27669 16
  1 27869 16
  1 28069 16
  1 28269 16
  1 28469 16
  1 28669 16
  1 28869 16
  1 29069 16
END period  1

