# File generated by Flopy version 3.6.0 on 03/26/2025 at 15:00:45.
BEGIN options
  PRINT_OPTION  summary
  COMPLEXITY  complex
END options

BEGIN linear
  LINEAR_ACCELERATION  bicgstab
END linear

