# File generated by Flopy version 3.6.0 on 03/18/2025 at 15:16:54.
BEGIN griddata
  strt
    INTERNAL  FACTOR  1.0
        25.00000000      23.27983054      22.33665777      21.76003723      21.38618666      21.13450924      20.95998977      20.83696300      20.74930239      20.68788539      20.64485444      20.61601170      20.59756638      20.58854550      20.58548425      20.58631413      20.59063474      20.59921560      20.61175813      20.62623279
        20.64153954      20.65781870      20.67464428      20.69143167      20.70733565      20.71938233      20.72717760      20.73091072      20.73089774      20.72730714      20.72160026      20.71335537      20.70270509      20.68982314      20.67477802      20.65801410      20.63969639      20.61945787      20.59754779      20.57404536
        20.54900748      20.52307871      20.49678496      20.46993131      20.44067519      20.40821126      20.37388436      20.33855955      20.30295318      20.26832111      20.23641507      20.20723503      20.18130517      20.15836911      20.13809565      20.12013868      20.10385843      20.08846888      20.07381218      20.05972680
        20.04581894      20.03264487      20.02078297      20.01032020      20.00072866      19.99043011      19.97890782      19.96651769      19.95237774      19.93736115      19.92123114      19.90393219      19.88541135      19.86634077      19.84709601      19.82753926      19.80772875      19.78826164      19.76889833      19.74997617
        19.73265525      19.71696281      19.70210353      19.68823285      19.67554725      19.66386668      19.65228574      19.64101812      19.63026538      19.61956650      19.60897931      19.59881013      19.58865561      19.57868377      19.56853819      19.55816793      19.54701942      19.53509649      19.52209716      19.50815041
        19.49334922      19.47779951      19.46094628      19.44288729      19.42352224      19.40291519      19.38080400      19.35725357      19.33245038      19.30621867      19.27879106      19.25034825      19.22117749      19.19165966      19.16262500      19.13511817      19.11014458      19.08861615      19.07118735      19.05852789
        19.05100299      19.04847366      19.05039516      19.05595947      19.06423298      19.07431724      19.08536522      19.09675625      19.10804363      19.11880681      19.12880892      19.13788904      19.14598289      19.15307681      19.15913935      19.16416927      19.16817820      19.17119345      19.17325377      19.17438259
        19.17464019      19.17396383      19.17228521      19.16956125      19.16572968      19.16073778      19.15448759      19.14686141      19.13773172      19.12686179      19.11423474      19.09970593      19.08310968      19.06418141      19.04266008      19.01836847      18.99081474      18.95940305      18.92403814      18.88457577
        18.84116659      18.79349550      18.74126765      18.68473550      18.62438442      18.56037404      18.49272613      18.42202436      18.34844025      18.27167770      18.19235556      18.11171866      18.03030040      17.94842892      17.86707372      17.78658905      17.70701005      17.62863841      17.55147128      17.47565646
        17.40133225      17.32869406      17.25722870      17.18668057      17.11706842      17.04773477      16.97862044      16.90997479      16.84151591      16.77301098      16.70419926      16.63502333      16.56539579      16.49457084      16.42156205      16.34566701      16.26636688      16.18293058      16.09453444      16.00000000
        25.00000000      23.90031286      23.07864249      22.49670793      22.08326961      21.78816287      21.57487715      21.41909850      21.30475601      21.22187547      21.16168351      21.11791955      21.08635489      21.06277321      21.04511258      21.03456239      21.03015142      21.03062545      21.03505622      21.04189579
        21.05015485      21.05917254      21.06725124      21.07434942      21.07813992      21.07775710      21.07328467      21.06476128      21.05225138      21.03698450      21.02014535      21.00180527      20.98161647      20.95961007      20.93585819      20.91112825      20.88490878      20.85708151      20.82762703      20.79710287
        20.76659825      20.73623818      20.70580154      20.67444188      20.64157807      20.60726106      20.57202261      20.53691993      20.50290078      20.47047628      20.44019440      20.41175087      20.38542142      20.36162753      20.34030793      20.32109679      20.30411365      20.28906862      20.27549870      20.26349098
        20.25197400      20.24022176      20.22810483      20.21534561      20.20211132      20.18849846      20.17373178      20.15735374      20.13887496      20.11858254      20.09699757      20.07458259      20.05137193      20.02758488      20.00372359      19.98005629      19.95675838      19.93391593      19.91146341      19.88940264
        19.86838589      19.84895299      19.83086013      19.81381243      19.79765280      19.78215988      19.76700595      19.75205453      19.73717516      19.72229591      19.70721218      19.69193862      19.67648982      19.66097050      19.64535715      19.62968718      19.61386333      19.59782225      19.58135494      19.56413674
        19.54618952      19.52745203      19.50774060      19.48684515      19.46462910      19.44092707      19.41587372      19.38943729      19.36172294      19.33269525      19.30241053      19.27106767      19.23883470      19.20614401      19.17376095      19.14280919      19.11456428      19.09016342      19.07047379      19.05631494
        19.04815213      19.04577719      19.04846814      19.05517790      19.06474916      19.07607970      19.08825093      19.10066579      19.11283947      19.12436210      19.13500695      19.14463026      19.15313765      19.16050315      19.16671724      19.17178801      19.17578350      19.17876423      19.18078600      19.18190250
        19.18212337      19.18141056      19.17967510      19.17687044      19.17294111      19.16781494      19.16139532      19.15359121      19.14424310      19.13309249      19.12007172      19.10499626      19.08771937      19.06810354      19.04581132      19.02062716      18.99229812      18.96043567      18.92470541      18.88492474
        18.84117735      18.79330000      18.74092092      18.68413656      18.62342003      18.55886200      18.49063856      18.41923365      18.34474883      18.26736124      18.18807884      18.10750908      18.02591648      17.94401731      17.86279001      17.78266629      17.70336613      17.62498084      17.54793330      17.47234299
        17.39811928      17.32538790      17.25403359      17.18377462      17.11418457      17.04490304      16.97604251      16.90751015      16.83895431      16.77044252      16.70188494      16.63306454      16.56388274      16.49342311      16.42054627      16.34482290      16.26564876      16.18227074      16.09412835      16.00000000
        25.00000000      24.23160093      23.57384513      23.05419469      22.65558713      22.35274114      22.12328844      21.94848274      21.81486880      21.71309515      21.63546242      21.57520601      21.52759004      21.49104475      21.46499026      21.44919959      21.44075973      21.43668139      21.43471246      21.43459129
        21.43454568      21.43326997      21.43038742      21.42525380      21.41634441      21.40422046      21.38850309      21.36993896      21.34909255      21.32597601      21.30014976      21.27186910      21.24226151      21.21185108      21.18051762      21.14837681      21.11562413      21.08200650      21.04760274      21.01305100
        20.97830710      20.94307338      20.90751878      20.87148594      20.83584967      20.80109930      20.76732652      20.73404769      20.70180721      20.67051775      20.64042756      20.61163930      20.58473399      20.56018619      20.53792753      20.51745574      20.49864726      20.48237530      20.46774576      20.45411119
        20.44095875      20.42705641      20.41216361      20.39639846      20.37954615      20.36141268      20.34173861      20.32067795      20.29843077      20.27514616      20.25096623      20.22590521      20.20029594      20.17389920      20.14691525      20.12038097      20.09435975      20.06895622      20.04400181      20.01943234
        19.99522725      19.97189237      19.94972977      19.92840848      19.90764285      19.88745616      19.86799256      19.84873540      19.82940294      19.81006662      19.79045397      19.77042438      19.75021767      19.73013588      19.71033186      19.69076431      19.67136665      19.65190102      19.63220467      19.61187248
        19.59092720      19.56934598      19.54684282      19.52322489      19.49850732      19.47248645      19.44502760      19.41622310      19.38610507      19.35455549      19.32157404      19.28721646      19.25168149      19.21547001      19.17939613      19.14462347      19.11258488      19.08470035      19.06218838      19.04628081
        19.03771827      19.03616880      19.04052369      19.04929534      19.06099713      19.07432500      19.08828704      19.10225321      19.11572906      19.12832855      19.13985150      19.15016933      19.15918825      19.16689850      19.17334901      19.17860028      19.18272223      19.18580754      19.18790625      19.18905361
        19.18925832      19.18852859      19.18680362      19.18400174      19.18006004      19.17488895      19.16838906      19.16042594      19.15089789      19.13957252      19.12616893      19.11066379      19.09287552      19.07258381      19.04956508      19.02359337      18.99441995      18.96171056      18.92531462      18.88505123
        18.84079174      18.79229057      18.73918820      18.68153815      18.61978741      18.55415445      18.48495065      18.41254883      18.33713408      18.25928067      18.17963163      18.09851024      18.01655562      17.93470473      17.85376274      17.77401039      17.69509409      17.61701619      17.54011971      17.46461811
        17.39045872      17.31782098      17.24676424      17.17689355      17.10764544      17.03862237      16.96977601      16.90112574      16.83267168      16.76460402      16.69654883      16.62836494      16.55974901      16.48953233      16.41699826      16.34170712      16.26306155      16.18038370      16.09305911      16.00000000
        25.00000000      24.43353097      23.91617266      23.47632955      23.11696572      22.82847123      22.59926352      22.41872568      22.27581644      22.16172581      22.07025129      21.99684632      21.93988516      21.89838021      21.87045677      21.85143371      21.83791345      21.82709452      21.81667526      21.80623373
        21.79600606      21.78546011      21.77278573      21.75666219      21.73764650      21.71593891      21.69106149      21.66348289      21.63375583      21.60169102      21.56709148      21.53048771      21.49283716      21.45495881      21.41670272      21.37794665      21.33901903      21.30000789      21.26135735      21.22271659
        21.18335063      21.14341593      21.10376728      21.06533675      21.02893724      20.99472977      20.96227887      20.93054333      20.89963479      20.86884462      20.83861199      20.80946377      20.78176881      20.75568637      20.73108548      20.70773758      20.68578076      20.66575225      20.64713904      20.62874582
        20.61070243      20.59262865      20.57379431      20.55359594      20.53202861      20.50933050      20.48571330      20.46162744      20.43709128      20.41195828      20.38615572      20.35930226      20.33173882      20.30376532      20.27545124      20.24717796      20.21908556      20.19133504      20.16387267      20.13652278
        20.10899850      20.08158403      20.05477100      20.02870731      20.00337158      19.97859256      19.95439824      19.93071261      19.90733418      19.88394794      19.86049879      19.83693589      19.81325067      19.78970900      19.76647063      19.74345788      19.72068107      19.69802122      19.67536302      19.65246897
        19.62909974      19.60517532      19.58043771      19.55459676      19.52773318      19.49972750      19.47028127      19.43939044      19.40711877      19.37319291      19.33752809      19.30014307      19.26112532      19.22107017      19.18084437      19.14157152      19.10475073      19.07224631      19.04606824      19.02816533
        19.01958370      19.01970095      19.02685948      19.03885550      19.05370461      19.06989321      19.08629073      19.10225258      19.11734998      19.13126843      19.14381574      19.15489812      19.16448797      19.17263046      19.17945742      19.18503303      19.18940811      19.19266348      19.19486700      19.19605526
        19.19626324      19.19552438      19.19381079      19.19102526      19.18709837      19.18192542      19.17540083      19.16737186      19.15770376      19.14622432      19.13269208      19.11683215      19.09853757      19.07757486      19.05373031      19.02683714      18.99669359      18.96297434      18.92560645      18.88445960
        18.83928312      18.78964652      18.73527240      18.67632805      18.61319355      18.54618562      18.47563189      18.40191946      18.32522388      18.24618498      18.16563655      18.08400233      18.00196595      17.92030629      17.83963916      17.76008325      17.68129489      17.60350756      17.52685444      17.45132819
        17.37710727      17.30475540      17.23416107      17.16470406      17.09580705      17.02702556      16.95838134      16.88989228      16.82174159      16.75411708      16.68667927      16.61934898      16.55173786      16.48254892      16.41087351      16.33626484      16.25859637      16.17739737      16.09154909      16.00000000
        25.00000000      24.57104907      24.16538341      23.80239625      23.48990746      23.22798554      23.01157478      22.83602546      22.69396137      22.57885934      22.48573601      22.41142340      22.35462614      22.31290583      22.28181563      22.25682377      22.23421963      22.21251717      22.19169356      22.17102795
        22.15124038      22.13087374      22.10806031      22.08202714      22.05354290      22.02120612      21.98526996      21.94668197      21.90665217      21.86479474      21.82185589      21.77845793      21.73427933      21.68977691      21.64571432      21.60173495      21.55762960      21.51347397      21.46982117      21.42656976
        21.38343592      21.34073525      21.29933823      21.26006930      21.22332713      21.18915752      21.15661906      21.12527639      21.09461006      21.06412087      21.03348459      21.00302771      20.97265825      20.94260797      20.91351065      20.88562568      20.85906122      20.83329950      20.80855138      20.78445637
        20.76110965      20.73811162      20.71463838      20.69018370      20.66493448      20.63921517      20.61351982      20.58785662      20.56159139      20.53416286      20.50603845      20.47747607      20.44847156      20.41926048      20.38976612      20.35984102      20.32975908      20.29965443      20.26939431      20.23878043
        20.20792816      20.17695567      20.14616891      20.11575842      20.08602770      20.05698162      20.02859135      20.00102477      19.97414140      19.94750340      19.92086502      19.89442756      19.86803772      19.84160001      19.81539422      19.78949665      19.76381741      19.73846153      19.71332841      19.68809657
        19.66256296      19.63671033      19.61024535      19.58275043      19.55420089      19.52449341      19.49332777      19.46051733      19.42607645      19.38972129      19.35134934      19.31097254      19.26846176      19.22419873      19.17901372      19.13404913      19.09108233      19.05269006      19.02182602      19.00140537
        18.99300583      18.99578951      19.00719297      19.02396300      19.04331744      19.06330107      19.08279361      19.10127186      19.11831983      19.13369392      19.14734383      19.15925432      19.16951886      19.17822404      19.18549896      19.19139948      19.19599165      19.19939105      19.20166762      19.20289523
        19.20313973      19.20242855      19.20074001      19.19800108      19.19412226      19.18900596      19.18251939      19.17451733      19.16480740      19.15320740      19.13943087      19.12318851      19.10439995      19.08278150      19.05808818      19.03019244      18.99886101      18.96393700      18.92543358      18.88301166
        18.83626588      18.78479676      18.72846801      18.66757591      18.60257937      18.53379341      18.46142585      18.38615303      18.30820088      18.22793561      18.14630486      18.06403849      17.98176353      17.89986893      17.81886312      17.73904363      17.66022989      17.58245576      17.50565340      17.43015778
        17.35658251      17.28490514      17.21469169      17.14553857      17.07707058      17.00864597      16.94028491      16.87232322      16.80491566      16.73824758      16.67227039      16.60650131      16.54023003      16.47219981      16.40164154      16.32847819      16.25256534      16.17309203      16.08917604      16.00000000
        25.00000000      24.67367809      24.35725413      24.06318619      23.79997813      23.57223896      23.37863140      23.21804220      23.08648771      22.97963135      22.89458096      22.82822929      22.77607822      22.73279938      22.69548567      22.66148497      22.62884041      22.59700863      22.56642788      22.53642617
        22.50543436      22.47235652      22.43695536      22.39894428      22.35803700      22.31396467      22.26739121      22.21906795      22.16998327      22.12029546      22.06981329      22.01896195      21.96858386      21.91865027      21.86929410      21.81967405      21.77001814      21.72112783      21.67330969      21.62652058
        21.58088736      21.53654039      21.49373224      21.45354374      21.41594342      21.38062761      21.34672883      21.31388805      21.28126091      21.24847751      21.21515308      21.18125527      21.14650923      21.11174672      21.07779706      21.04492053      21.01308171      20.98180042      20.95154902      20.92262555
        20.89476267      20.86719060      20.83947239      20.81171662      20.78393212      20.75639816      20.72882474      20.70106221      20.67262121      20.64319049      20.61316393      20.58297502      20.55246499      20.52148666      20.49010270      20.45831462      20.42616094      20.39364785      20.36092873      20.32758653
        20.29369048      20.25943333      20.22516249      20.19119484      20.15790913      20.12554346      20.09401907      20.06323176      20.03320448      20.00378628      19.97455157      19.94554003      19.91683726      19.88810269      19.85951923      19.83129544      19.80338940      19.77563238      19.74808753      19.72063241
        19.69309963      19.66546150      19.63747650      19.60869253      19.57880793      19.54765976      19.51497905      19.48052376      19.44413314      19.40547505      19.36440912      19.32082011      19.27450194      19.22557311      19.17468682      19.12300792      19.07251349      19.02628764      18.98842485      18.96357766
        18.95527683      18.96258530      18.98075179      19.00453849      19.03010041      19.05513428      19.07850826      19.09986593      19.11907757      19.13611169      19.15099813      19.16387665      19.17490415      19.18413362      19.19174345      19.19787147      19.20262165      19.20611609      19.20844282      19.20970340
        19.20997229      19.20929972      19.20768027      19.20502721      19.20124040      19.19622126      19.18981897      19.18187248      19.17214324      19.16040328      19.14639046      19.12983189      19.11042225      19.08801315      19.06229370      19.03318248      19.00051028      18.96407739      18.92372351      18.87907979
        18.82996198      18.77630055      18.71790710      18.65490680      18.58773171      18.51656463      18.44196787      18.36472436      18.28494073      18.20326628      18.12058902      18.03719233      17.95348089      17.87021006      17.78824782      17.70779779      17.62860053      17.55092509      17.47491908      17.40044851
        17.32758312      17.25634921      17.18668434      17.11817705      17.05035368      16.98257991      16.91507664      16.84834814      16.78269599      16.71812876      16.65413803      16.59000273      16.52491940      16.45802869      16.38901860      16.31791042      16.24425274      16.16724029      16.08610119      16.00000000
        25.00000000      24.75425820      24.51090722      24.27968248      24.06690570      23.87846663      23.71567716      23.57837546      23.46508605      23.37296242      23.29897259      23.23855303      23.18766076      23.14181201      23.09937320      23.05849486      23.01864698      22.97915397      22.93956432      22.89835877
        22.85390790      22.80664318      22.75755029      22.70669980      22.65344255      22.59953335      22.54522536      22.48937721      22.43134188      22.37283745      22.31423798      22.25628200      22.19901000      22.14234375      22.08614609      22.03065189      21.97571187      21.92214012      21.87019210      21.82002843
        21.77156576      21.72493651      21.68072039      21.63895730      21.59937584      21.56116134      21.52395798      21.48733522      21.45087799      21.41392309      21.37649146      21.33839321      21.29972472      21.26134958      21.22340092      21.18601115      21.14954031      21.11410153      21.07974044      21.04662592
        21.01467232      20.98346570      20.95275663      20.92253492      20.89245369      20.86242259      20.83220051      20.80184591      20.77124737      20.74046127      20.70940385      20.67780862      20.64570539      20.61310250      20.58004911      20.54649028      20.51236409      20.47752940      20.44230106      20.40657888
        20.37007921      20.33307951      20.29587614      20.25893446      20.22280230      20.18767545      20.15342062      20.11991642      20.08724242      20.05531342      20.02387730      19.99267851      19.96185474      19.93136044      19.90100771      19.87076895      19.84071140      19.81083981      19.78117564      19.75168952
        19.72240619      19.69321715      19.66379839      19.63376485      19.60268790      19.57027903      19.53626039      19.50028097      19.46205160      19.42115165      19.37740004      19.33053993      19.28027234      19.22659138      19.16978927      19.11056007      19.05056713      18.99308423      18.94300699      18.90865953
        18.90023759      18.91658210      18.94651595      18.98098588      19.01492811      19.04619003      19.07407080      19.09873180      19.12042251      19.13927966      19.15548501      19.16930088      19.18093154      19.19055514      19.19843291      19.20472421      19.20955952      19.21307824      19.21541090      19.21669602
        19.21699411      19.21632418      19.21472183      19.21213038      19.20844648      19.20355823      19.19728202      19.18941324      19.17968840      19.16780999      19.15349989      19.13644563      19.11630590      19.09292259      19.06584191      19.03503908      19.00048844      18.96186738      18.91900241      18.87166848
        18.82004441      18.76408984      18.70324568      18.63752348      18.56749231      18.49329140      18.41559920      18.33566973      18.25375751      18.16996029      18.08460911      17.99847487      17.91249917      17.82773563      17.74500871      17.66439235      17.58576285      17.50911458      17.43412280      17.36064528
        17.28874431      17.21864632      17.14998596      17.08242645      17.01565493      16.94926990      16.88361157      16.81913025      16.75583499      16.69352319      16.63151032      16.56893276      16.50512304      16.43976155      16.37284428      16.30428289      16.23352169      16.15958255      16.08186738      16.00000000
        25.00000000      24.82105832      24.64125207      24.46793627      24.30593904      24.15925822      24.03191495      23.92413920      23.83369364      23.75898946      23.69640749      23.64177653      23.59168195      23.54495608      23.50011761      23.45563135      23.40998435      23.36069152      23.30774002      23.25172646
        23.19392021      23.13381561      23.07221658      23.00976696      22.94699318      22.88425848      22.82087433      22.75592523      22.68912059      22.62191934      22.55473639      22.48840383      22.42282519      22.35804834      22.29418772      22.23199709      22.17182393      22.11336623      22.05672831      22.00245624
        21.95091983      21.90164021      21.85462874      21.80951745      21.76573654      21.72318985      21.68182906      21.64120414      21.60069111      21.55975987      21.51832173      21.47654171      21.43455254      21.39289062      21.35158585      21.31083034      21.27080245      21.23205533      21.19456247      21.15833106
        21.12329900      21.08935717      21.05612900      21.02330800      20.99083578      20.95837697      20.92592314      20.89378649      20.86201602      20.83009188      20.79794365      20.76533668      20.73195801      20.69798656      20.66340379      20.62818812      20.59227391      20.55573173      20.51838660      20.48032508
        20.44146508      20.40195529      20.36221986      20.32280091      20.28407772      20.24632827      20.20936587      20.17337541      20.13851082      20.10447820      20.07102322      20.03809617      20.00545784      19.97308515      19.94089884      19.90894631      19.87712739      19.84552648      19.81432865      19.78340215
        19.75267850      19.72206010      19.69116517      19.65969873      19.62738096      19.59371405      19.55825619      19.52067239      19.48061596      19.43753124      19.39118027      19.34135063      19.28765453      19.22971605      19.16698450      19.09933267      19.02748736      18.95286917      18.88016769      18.82455736
        18.81643263      18.85333071      18.90429821      18.95467262      18.99946070      19.03795695      19.07082760      19.09904834      19.12329087      19.14393064      19.16130826      19.17582396      19.18785401      19.19773809      19.20577826      19.21214735      19.21699954      19.22049198      19.22278731      19.22401937
        19.22425228      19.22352977      19.22191348      19.21938379      19.21584369      19.21113537      19.20500255      19.19719816      19.18746351      19.17539503      19.16064031      19.14290433      19.12182357      19.09695702      19.06797236      19.03478771      18.99764139      18.95632301      18.91063009      18.86049442
        18.80608930      18.74696625      18.68261537      18.61336652      18.53960227      18.46147760      18.38007308      18.29636898      18.21035828      18.12237711      18.03345835      17.94477040      17.85724423      17.77170445      17.68883134      17.60893962      17.53166711      17.45652139      17.38319722      17.31163912
        17.24156945      17.17279124      17.10518679      17.03883841      16.97357644      16.90930864      16.84627157      16.78442420      16.72350863      16.66302630      16.60251049      16.54160937      16.47985264      16.41691602      16.35276457      16.28733021      16.22010216      16.15027444      16.07708929      16.00000000
        25.00000000      24.87988939      24.75770280      24.63842962      24.52644444      24.42485431      24.33509231      24.25828846      24.19287631      24.13614656      24.08550606      24.03914674      23.99377641      23.94891416      23.90182451      23.84988959      23.79238731      23.72938358      23.66185436      23.59196311
        23.52143807      23.45059819      23.37927958      23.30683042      23.23404958      23.16102145      23.08743440      23.01341052      22.93897404      22.86353567      22.78772507      22.71206236      22.63715777      22.56350036      22.49168418      22.42208933      22.35553029      22.29180202      22.23078667      22.17267126
        22.11722632      22.06398703      22.01232592      21.96266280      21.91474567      21.86836644      21.82334602      21.77896670      21.73452627      21.68977738      21.64486714      21.60010299      21.55497925      21.50989056      21.46559268      21.42242479      21.38011965      21.33897660      21.29909189      21.26033414
        21.22250947      21.18568676      21.14970166      21.11446567      21.07988643      21.04597984      21.01243524      20.97933839      20.94682670      20.91402310      20.88074281      20.84708769      20.81283072      20.77781657      20.74206903      20.70561804      20.66824194      20.63002490      20.59092878      20.55088156
        20.51005440      20.46849288      20.42637964      20.38431672      20.34298643      20.30279861      20.26369560      20.22550176      20.18849149      20.15269512      20.11752108      20.08283388      20.04857029      20.01456259      19.98075813      19.94731466      19.91425562      19.88150890      19.84914374      19.81707437
        19.78515091      19.75324829      19.72097597      19.68804448      19.65422731      19.61910343      19.58205374      19.54269010      19.50075835      19.45573360      19.40731668      19.35516119      19.29844545      19.23646871      19.16831751      19.09243753      19.00650538      18.90792984      18.79580288      18.68575768
        18.68001806      18.76975869      18.85728087      18.92933440      18.98682051      19.03297588      19.07078895      19.10230283      19.12863456      19.15056998      19.16871591      19.18364462      19.19593914      19.20598163      19.21403907      19.22034539      19.22509601      19.22845871      19.23059832      19.23166133