# File generated by Flopy version 3.6.0 on 03/12/2025 at 15:04:59.
BEGIN options
END options

BEGIN dimensions
  MAXBOUND  29069
END dimensions

BEGIN period  1
  1 1 6.88709211E-09
  1 2 6.75447538E-09
  1 3 6.86972462E-09
  1 4 7.13931752E-09
  1 5 7.34814751E-09
  1 6 7.59934310E-09
  1 7 7.67540377E-09
  1 8 7.47987763E-09
  1 9 7.29381507E-09
  1 10 6.92643219E-09
  1 11 6.45656933E-09
  1 12 6.13898626E-09
  1 13 5.98549222E-09
  1 14 5.70875067E-09
  1 15 5.42284025E-09
  1 16 5.16758279E-09
  1 17 4.83637229E-09
  1 18 4.72983014E-09
  1 19 4.73982582E-09
  1 20 4.93122759E-09
  1 21 5.36731083E-09
  1 22 5.65017669E-09
  1 23 5.78692021E-09
  1 24 6.23096575E-09
  1 25 6.82460335E-09
  1 26 7.17126534E-09
  1 27 7.22356049E-09
  1 28 7.25776817E-09
  1 29 7.07743837E-09
  1 30 6.83314345E-09
  1 31 6.71186211E-09
  1 32 6.55426465E-09
  1 33 6.66437585E-09
  1 34 6.80183585E-09
  1 35 7.16184740E-09
  1 36 7.56654565E-09
  1 37 8.05383948E-09
  1 38 8.43978341E-09
  1 39 8.94153974E-09
  1 40 9.41610130E-09
  1 41 9.90099267E-09
  1 42 1.04766199E-08
  1 43 1.08591267E-08
  1 44 1.10573148E-08
  1 45 1.12617036E-08
  1 46 1.14020516E-08
  1 47 1.15176236E-08
  1 48 1.15136256E-08
  1 49 1.13688749E-08
  1 50 1.12984335E-08
  1 51 1.13619799E-08
  1 52 1.12825411E-08
  1 53 1.12928130E-08
  1 54 1.15209251E-08
  1 55 1.18135041E-08
  1 56 1.20166445E-08
  1 57 1.22060163E-08
  1 58 1.25685042E-08
  1 59 1.29197032E-08
  1 60 1.33718609E-08
  1 61 1.37730533E-08
  1 62 1.41444286E-08
  1 63 1.43710715E-08
  1 64 1.46005975E-08
  1 65 1.46483331E-08
  1 66 1.46660739E-08
  1 67 1.46780574E-08
  1 68 1.44704608E-08
  1 69 1.40955773E-08
  1 70 1.34478086E-08
  1 71 1.27969621E-08
  1 72 1.19048925E-08
  1 73 1.08569180E-08
  1 74 1.00623899E-08
  1 75 9.36393819E-09
  1 76 8.76804021E-09
  1 77 8.24000792E-09
  1 78 7.71772601E-09
  1 79 7.13762721E-09
  1 80 6.51070991E-09
  1 81 6.05067449E-09
  1 82 5.51933347E-09
  1 83 4.94459826E-09
  1 84 4.61758240E-09
  1 85 4.33922976E-09
  1 86 4.23384251E-09
  1 87 4.27239891E-09
  1 88 4.54741656E-09
  1 89 4.81779175E-09
  1 90 4.90966154E-09
  1 91 4.91903488E-09
  1 92 4.80358644E-09
  1 93 4.89008489E-09
  1 94 5.04858869E-09
  1 95 5.42366451E-09
  1 96 5.81783965E-09
  1 97 5.98711284E-09
  1 98 6.14665118E-09
  1 99 6.45838285E-09
  1 100 6.70509650E-09
  1 101 6.92022940E-09
  1 102 7.15346384E-09
  1 103 7.29120870E-09
  1 104 7.48315731E-09
  1 105 7.69853379E-09
  1 106 8.08143099E-09
  1 107 8.48058577E-09
  1 108 8.99479405E-09
  1 109 9.54740323E-09
  1 110 9.85372273E-09
  1 111 1.01524007E-08
  1 112 1.04426400E-08
  1 113 1.09247002E-08
  1 114 1.14354563E-08
  1 115 1.17898108E-08
  1 116 1.22645292E-08
  1 117 1.25925555E-08
  1 118 1.27905553E-08
  1 119 1.27713332E-08
  1 120 1.27300952E-08
  1 121 1.24162066E-08
  1 122 1.20065509E-08
  1 123 1.15570713E-08
  1 124 1.12477893E-08
  1 125 1.08022293E-08
  1 126 1.05509992E-08
  1 127 1.03850297E-08
  1 128 1.01735989E-08
  1 129 1.01440651E-08
  1 130 1.01081850E-08
  1 131 1.01564970E-08
  1 132 9.99640923E-09
  1 133 9.54633301E-09
  1 134 9.32507669E-09
  1 135 8.96523110E-09
  1 136 8.61008653E-09
  1 137 8.45249088E-09
  1 138 8.26011584E-09
  1 139 8.17936695E-09
  1 140 8.16152068E-09
  1 141 8.68522072E-09
  1 142 9.24591705E-09
  1 143 9.64939219E-09
  1 144 1.00104912E-08
  1 145 1.01664283E-08
  1 146 1.04644263E-08
  1 147 1.06457635E-08
  1 148 1.07459938E-08
  1 149 1.06526889E-08
  1 150 1.03887985E-08
  1 151 9.90610555E-09
  1 152 9.34702487E-09
  1 153 8.75096896E-09
  1 154 8.18154866E-09
  1 155 7.79409667E-09
  1 156 7.55306489E-09
  1 157 7.37666097E-09
  1 158 7.28019828E-09
  1 159 7.07730921E-09
  1 160 6.74930639E-09
  1 161 6.28120488E-09
  1 162 5.87330580E-09
  1 163 5.26058314E-09
  1 164 4.90570710E-09
  1 165 4.71163823E-09
  1 166 4.55910996E-09
  1 167 4.38911279E-09
  1 168 4.25669896E-09
  1 169 4.22169828E-09
  1 170 4.45987411E-09
  1 171 5.00626280E-09
  1 172 5.54985904E-09
  1 173 5.97184510E-09
  1 174 6.22630803E-09
  1 175 6.47237203E-09
  1 176 6.76687350E-09
  1 177 7.11284517E-09
  1 178 7.42067810E-09
  1 179 7.40579390E-09
  1 180 7.44640801E-09
  1 181 7.70638973E-09
  1 182 8.13643748E-09
  1 183 8.58347274E-09
  1 184 8.82609714E-09
  1 185 8.91363800E-09
  1 186 8.85609483E-09
  1 187 8.82261374E-09
  1 188 8.93053892E-09
  1 189 9.33733389E-09
  1 190 9.79092996E-09
  1 191 1.02986389E-08
  1 192 1.07564848E-08
  1 193 1.11169791E-08
  1 194 1.12928561E-08
  1 195 1.12692863E-08
  1 196 1.14662478E-08
  1 197 1.15585336E-08
  1 198 1.16101718E-08
  1 199 1.17283397E-08
  1 200 1.19969492E-08
  1 201 6.96228593E-09
  1 202 6.83593745E-09
  1 203 6.83723603E-09
  1 204 7.13392530E-09
  1 205 7.36447177E-09
  1 206 7.58214022E-09
  1 207 7.78062851E-09
  1 208 7.68753622E-09
  1 209 7.47010539E-09
  1 210 7.16056831E-09
  1 211 6.69045656E-09
  1 212 6.31772709E-09
  1 213 6.06048523E-09
  1 214 5.86370490E-09
  1 215 5.57753096E-09
  1 216 5.32707554E-09
  1 217 5.04527310E-09
  1 218 4.87391476E-09
  1 219 4.84650408E-09
  1 220 4.94786441E-09
  1 221 5.33582226E-09
  1 222 5.77916822E-09
  1 223 5.93580896E-09
  1 224 6.25425722E-09
  1 225 6.82716323E-09
  1 226 7.31866409E-09
  1 227 7.41583072E-09
  1 228 7.43221780E-09
  1 229 7.33356348E-09
  1 230 7.05588418E-09
  1 231 6.89930496E-09
  1 232 6.73486400E-09
  1 233 6.77665131E-09
  1 234 6.85730886E-09
  1 235 7.04850251E-09
  1 236 7.49106506E-09
  1 237 7.97462300E-09
  1 238 8.32170193E-09
  1 239 8.81259733E-09
  1 240 9.27620194E-09
  1 241 9.76750716E-09
  1 242 1.03416688E-08
  1 243 1.08037820E-08
  1 244 1.10506647E-08
  1 245 1.11707709E-08
  1 246 1.13670939E-08
  1 247 1.15415353E-08
  1 248 1.16065108E-08
  1 249 1.14815839E-08
  1 250 1.13154367E-08
  1 251 1.13925978E-08
  1 252 1.13681663E-08
  1 253 1.12804723E-08
  1 254 1.14190169E-08
  1 255 1.16889100E-08
  1 256 1.19210905E-08
  1 257 1.21048601E-08
  1 258 1.24563606E-08
  1 259 1.27988383E-08
  1 260 1.32851026E-08
  1 261 1.37275332E-08
  1 262 1.40686495E-08
  1 263 1.43695173E-08
  1 264 1.45754414E-08
  1 265 1.47005559E-08
  1 266 1.47021130E-08
  1 267 1.47339976E-08
  1 268 1.46177132E-08
  1 269 1.43768462E-08
  1 270 1.37458858E-08
  1 271 1.30644184E-08
  1 272 1.23329356E-08
  1 273 1.12868037E-08
  1 274 1.04126011E-08
  1 275 9.68791041E-09
  1 276 9.05404207E-09
  1 277 8.47617160E-09
  1 278 8.02709978E-09
  1 279 7.48779123E-09
  1 280 6.81391631E-09
  1 281 6.21392451E-09
  1 282 5.74809119E-09
  1 283 5.14434280E-09
  1 284 4.71353927E-09
  1 285 4.50843100E-09
  1 286 4.29681806E-09
  1 287 4.25246221E-09
  1 288 4.49435683E-09
  1 289 4.76468071E-09
  1 290 4.94222911E-09
  1 291 4.98571303E-09
  1 292 4.89880834E-09
  1 293 4.90613295E-09
  1 294 5.00723742E-09
  1 295 5.28436704E-09
  1 296 5.71680492E-09
  1 297 5.94245573E-09
  1 298 6.14800321E-09
  1 299 6.42130998E-09
  1 300 6.70256148E-09
  1 301 6.93174894E-09
  1 302 7.18829697E-09
  1 303 7.32096225E-09
  1 304 7.49379981E-09
  1 305 7.65607405E-09
  1 306 8.00538006E-09
  1 307 8.39600477E-09
  1 308 8.88312633E-09
  1 309 9.38948304E-09
  1 310 9.80523093E-09
  1 311 1.00223111E-08
  1 312 1.03441045E-08
  1 313 1.07259634E-08
  1 314 1.12691487E-08
  1 315 1.16136903E-08
  1 316 1.20469965E-08
  1 317 1.24664272E-08
  1 318 1.26745681E-08
  1 319 1.27754425E-08
  1 320 1.27504414E-08
  1 321 1.25424682E-08
  1 322 1.21346656E-08
  1 323 1.16659673E-08
  1 324 1.12483927E-08
  1 325 1.09169255E-08
  1 326 1.05470873E-08
  1 327 1.03259851E-08
  1 328 1.01108296E-08
  1 329 1.00433400E-08
  1 330 1.00031982E-08
  1 331 1.00421865E-08
  1 332 9.98812929E-09
  1 333 9.55046929E-09
  1 334 9.30214748E-09
  1 335 8.97353310E-09
  1 336 8.53743260E-09
  1 337 8.34857434E-09
  1 338 8.19078810E-09
  1 339 8.09918249E-09
  1 340 7.99316116E-09
  1 341 8.34939426E-09
  1 342 8.92662110E-09
  1 343 9.40520222E-09
  1 344 9.80611533E-09
  1 345 1.00857722E-08
  1 346 1.03326239E-08
  1 347 1.05963394E-08
  1 348 1.06622306E-08
  1 349 1.06720388E-08
  1 350 1.04304028E-08
  1 351 1.01222650E-08
  1 352 9.49601227E-09
  1 353 8.92891738E-09
  1 354 8.30126022E-09
  1 355 7.86818152E-09
  1 356 7.57876180E-09
  1 357 7.27299186E-09
  1 358 7.18766473E-09
  1 359 7.04069515E-09
  1 360 6.80163884E-09
  1 361 6.38898772E-09
  1 362 5.94210813E-09
  1 363 5.45601695E-09
  1 364 4.93876559E-09
  1 365 4.68318184E-09
  1 366 4.50956165E-09
  1 367 4.41125617E-09
  1 368 4.27272849E-09
  1 369 4.21249399E-09
  1 370 4.34010458E-09
  1 371 4.80568965E-09
  1 372 5.35010474E-09
  1 373 5.84876944E-09
  1 374 6.15979921E-09
  1 375 6.36000028E-09
  1 376 6.60539510E-09
  1 377 6.96116464E-09
  1 378 7.24760695E-09
  1 379 7.38738999E-09
  1 380 7.38000086E-09
  1 381 7.57247445E-09
  1 382 7.96539590E-09
  1 383 8.41284699E-09
  1 384 8.70867898E-09
  1 385 8.82095403E-09
  1 386 8.85843509E-09
  1 387 8.74505698E-09
  1 388 8.79578955E-09
  1 389 9.11664809E-09
  1 390 9.63861782E-09
  1 391 1.00597524E-08
  1 392 1.06043386E-08
  1 393 1.09991080E-08
  1 394 1.12321627E-08
  1 395 1.12298548E-08
  1 396 1.13399864E-08
  1 397 1.15512431E-08
  1 398 1.15428784E-08
  1 399 1.16787893E-08
  1 400 1.18993708E-08
  1 401 7.02360025E-09
  1 402 6.92452923E-09
  1 403 6.87606575E-09
  1 404 7.15499198E-09
  1 405 7.34183451E-09
  1 406 7.57939716E-09
  1 407 7.80650849E-09
  1 408 7.91636829E-09
  1 409 7.65126839E-09
  1 410 7.41840605E-09
  1 411 6.94602376E-09
  1 412 6.51767725E-09
  1 413 6.15158275E-09
  1 414 5.97912481E-09
  1 415 5.76224848E-09
  1 416 5.50423626E-09
  1 417 5.23700583E-09
  1 418 5.03130805E-09
  1 419 4.91066061E-09
  1 420 4.99745697E-09
  1 421 5.31364292E-09
  1 422 5.83675811E-09
  1 423 6.12696893E-09
  1 424 6.36014607E-09
  1 425 6.79340872E-09
  1 426 7.34003864E-09
  1 427 7.60195620E-09
  1 428 7.60196015E-09
  1 429 7.54957056E-09
  1 430 7.26129338E-09
  1 431 7.11776656E-09
  1 432 6.95967023E-09
  1 433 6.85864759E-09
  1 434 6.91538162E-09
  1 435 7.00588529E-09
  1 436 7.37537698E-09
  1 437 7.87525966E-09
  1 438 8.21020183E-09
  1 439 8.67432287E-09
  1 440 9.14846134E-09
  1 441 9.63140383E-09
  1 442 1.01784806E-08
  1 443 1.06715641E-08
  1 444 1.10218717E-08
  1 445 1.11440848E-08
  1 446 1.13076978E-08
  1 447 1.15018355E-08
  1 448 1.16059787E-08
  1 449 1.15807829E-08
  1 450 1.13638323E-08
  1 451 1.13338570E-08
  1 452 1.14260209E-08
  1 453 1.12941975E-08
  1 454 1.13795627E-08
  1 455 1.15839729E-08
  1 456 1.18505882E-08
  1 457 1.20173895E-08
  1 458 1.23182396E-08
  1 459 1.27187834E-08
  1 460 1.31711931E-08
  1 461 1.36129461E-08
  1 462 1.40072001E-08
  1 463 1.43611768E-08
  1 464 1.45446678E-08
  1 465 1.47353808E-08
  1 466 1.47492556E-08
  1 467 1.47674731E-08
  1 468 1.48042117E-08
  1 469 1.45324189E-08
  1 470 1.40245220E-08
  1 471 1.33184645E-08
  1 472 1.26638412E-08
  1 473 1.17341899E-08
  1 474 1.07746308E-08
  1 475 9.99194717E-09
  1 476 9.32143778E-09
  1 477 8.76182704E-09
  1 478 8.28579338E-09
  1 479 7.78069559E-09
  1 480 7.13132634E-09
  1 481 6.46694036E-09
  1 482 5.93583052E-09
  1 483 5.34069311E-09
  1 484 4.82936498E-09
  1 485 4.59378701E-09
  1 486 4.33862307E-09
  1 487 4.29515895E-09
  1 488 4.42576705E-09
  1 489 4.66209404E-09
  1 490 4.88490622E-09
  1 491 5.03777039E-09
  1 492 5.00926880E-09
  1 493 4.94742441E-09
  1 494 5.00579009E-09
  1 495 5.19522119E-09
  1 496 5.59948234E-09
  1 497 5.91035266E-09
  1 498 6.15653680E-09
  1 499 6.39284507E-09
  1 500 6.67245348E-09
  1 501 6.93232017E-09
  1 502 7.20704419E-09
  1 503 7.38929744E-09
  1 504 7.51978520E-09
  1 505 7.66308320E-09
  1 506 7.92824072E-09
  1 507 8.29640267E-09
  1 508 8.73916149E-09
  1 509 9.18434240E-09
  1 510 9.67886428E-09
  1 511 9.94441564E-09
  1 512 1.02624446E-08
  1 513 1.05634288E-08
  1 514 1.10733633E-08
  1 515 1.14860651E-08
  1 516 1.18168054E-08
  1 517 1.22991703E-08
  1 518 1.25559463E-08
  1 519 1.27236838E-08
  1 520 1.27138811E-08
  1 521 1.26237925E-08
  1 522 1.22809752E-08
  1 523 1.17636105E-08
  1 524 1.13126644E-08
  1 525 1.09701017E-08
  1 526 1.05853222E-08
  1 527 1.02996397E-08
  1 528 1.01099126E-08
  1 529 9.96024018E-09
  1 530 9.91138976E-09
  1 531 9.91968638E-09
  1 532 9.92582234E-09
  1 533 9.61840647E-09
  1 534 9.23235658E-09
  1 535 8.97952942E-09
  1 536 8.53089392E-09
  1 537 8.26171760E-09
  1 538 8.10314255E-09
  1 539 8.00455163E-09
  1 540 7.91087721E-09
  1 541 8.05129929E-09
  1 542 8.60048092E-09
  1 543 9.14508575E-09
  1 544 9.59760026E-09
  1 545 9.97962274E-09
  1 546 1.01853838E-08
  1 547 1.05086209E-08
  1 548 1.05898015E-08
  1 549 1.06538182E-08
  1 550 1.04610187E-08
  1 551 1.02592792E-08
  1 552 9.71255546E-09
  1 553 9.12027494E-09
  1 554 8.42945991E-09
  1 555 7.94230998E-09
  1 556 7.63313577E-09
  1 557 7.25187106E-09
  1 558 7.04096535E-09
  1 559 6.97661971E-09
  1 560 6.81075521E-09
  1 561 6.50835503E-09
  1 562 6.00972991E-09
  1 563 5.57708340E-09
  1 564 5.02849183E-09
  1 565 4.63745138E-09
  1 566 4.45421713E-09
  1 567 4.36469211E-09
  1 568 4.27236346E-09
  1 569 4.21822226E-09
  1 570 4.29332951E-09
  1 571 4.62191797E-09
  1 572 5.14109453E-09
  1 573 5.69354043E-09
  1 574 6.03355831E-09
  1 575 6.31887093E-09
  1 576 6.50622744E-09
  1 577 6.80810246E-09
  1 578 7.14034141E-09
  1 579 7.33601988E-09
  1 580 7.35209653E-09
  1 581 7.50962403E-09
  1 582 7.80307830E-09
  1 583 8.19393983E-09
  1 584 8.58582400E-09
  1 585 8.71775318E-09
  1 586 8.77108463E-09
  1 587 8.68252808E-09
  1 588 8.70508089E-09
  1 589 8.94098585E-09
  1 590 9.44089866E-09
  1 591 9.88505941E-09
  1 592 1.03919593E-08
  1 593 1.08149722E-08
  1 594 1.11119367E-08
  1 595 1.12360543E-08
  1 596 1.12325296E-08
  1 597 1.14642406E-08
  1 598 1.14768712E-08
  1 599 1.16455636E-08
  1 600 1.18085608E-08
  1 601 7.05687924E-09
  1 602 7.01200577E-09
  1 603 6.97216726E-09
  1 604 7.16488741E-09
  1 605 7.37004998E-09
  1 606 7.56931303E-09
  1 607 7.81116933E-09
  1 608 8.03193211E-09
  1 609 7.90755793E-09
  1 610 7.66724080E-09
  1 611 7.20190399E-09
  1 612 6.75353703E-09
  1 613 6.31620207E-09
  1 614 6.06458986E-09
  1 615 5.94538066E-09
  1 616 5.66128172E-09
  1 617 5.42116717E-09
  1 618 5.17760282E-09
  1 619 5.06193287E-09
  1 620 5.09245866E-09
  1 621 5.33285931E-09
  1 622 5.82204062E-09
  1 623 6.29065058E-09
  1 624 6.53216891E-09
  1 625 6.84208054E-09
  1 626 7.33984892E-09
  1 627 7.73128860E-09
  1 628 7.80733191E-09
  1 629 7.73686736E-09
  1 630 7.54477625E-09
  1 631 7.36983420E-09
  1 632 7.22644536E-09
  1 633 7.01195820E-09
  1 634 7.02237407E-09
  1 635 7.08203719E-09
  1 636 7.31130225E-09
  1 637 7.73418396E-09
  1 638 8.15225737E-09
  1 639 8.51306440E-09
  1 640 9.02344411E-09
  1 641 9.49971880E-09
  1 642 1.00004434E-08
  1 643 1.05399112E-08
  1 644 1.09383498E-08
  1 645 1.11552341E-08
  1 646 1.12586538E-08
  1 647 1.14550960E-08
  1 648 1.15813221E-08
  1 649 1.16431460E-08
  1 650 1.14619828E-08
  1 651 1.13114190E-08
  1 652 1.13959593E-08
  1 653 1.13362139E-08
  1 654 1.13639764E-08
  1 655 1.15138397E-08
  1 656 1.18323173E-08
  1 657 1.19186765E-08
  1 658 1.21992021E-08
  1 659 1.26341060E-08
  1 660 1.30598212E-08
  1 661 1.34923120E-08
  1 662 1.39620909E-08
  1 663 1.43266328E-08
  1 664 1.45712460E-08
  1 665 1.47302289E-08
  1 666 1.48097423E-08
  1 667 1.47732885E-08
  1 668 1.48825820E-08
  1 669 1.46873185E-08
  1 670 1.42913901E-08
  1 671 1.36047874E-08
  1 672 1.29071246E-08
  1 673 1.21579766E-08
  1 674 1.11934651E-08
  1 675 1.03172518E-08
  1 676 9.60916255E-09
  1 677 9.01369951E-09
  1 678 8.53130154E-09
  1 679 8.08530331E-09
  1 680 7.49892058E-09
  1 681 6.72816793E-09
  1 682 6.12953655E-09
  1 683 5.55966206E-09
  1 684 4.97478794E-09
  1 685 4.64189330E-09
  1 686 4.46968498E-09
  1 687 4.36903582E-09
  1 688 4.40412664E-09
  1 689 4.60019535E-09
  1 690 4.83115006E-09
  1 691 5.02469636E-09
  1 692 5.09262774E-09
  1 693 5.02669724E-09
  1 694 5.04099956E-09
  1 695 5.16020609E-09
  1 696 5.48951892E-09
  1 697 5.86860007E-09
  1 698 6.17761638E-09
  1 699 6.39764398E-09
  1 700 6.70855729E-09
  1 701 6.96872643E-09
  1 702 7.19541489E-09
  1 703 7.43529535E-09
  1 704 7.57925116E-09
  1 705 7.68111000E-09
  1 706 7.85724236E-09
  1 707 8.22664879E-09
  1 708 8.61350420E-09
  1 709 9.06962016E-09
  1 710 9.55784178E-09
  1 711 9.89789820E-09
  1 712 1.01678175E-08
  1 713 1.04705272E-08
  1 714 1.08590777E-08
  1 715 1.13284644E-08
  1 716 1.16029112E-08
  1 717 1.21013192E-08
  1 718 1.24481712E-08
  1 719 1.26425186E-08
  1 720 1.27106134E-08
  1 721 1.26420710E-08
  1 722 1.23954028E-08
  1 723 1.18929372E-08
  1 724 1.14261800E-08
  1 725 1.09958040E-08
  1 726 1.06820528E-08
  1 727 1.03078273E-08
  1 728 1.01160040E-08
  1 729 9.89101247E-09
  1 730 9.84449348E-09
  1 731 9.82991066E-09
  1 732 9.80810769E-09
  1 733 9.65011352E-09
  1 734 9.19433620E-09
  1 735 8.97773750E-09
  1 736 8.55250411E-09
  1 737 8.20267954E-09
  1 738 7.99477028E-09
  1 739 7.88932443E-09
  1 740 7.87444189E-09
  1 741 7.80743787E-09
  1 742 8.24324142E-09
  1 743 8.87131942E-09
  1 744 9.32491844E-09
  1 745 9.77271358E-09
  1 746 1.00330765E-08
  1 747 1.03970488E-08
  1 748 1.05593162E-08
  1 749 1.05956465E-08
  1 750 1.04868118E-08
  1 751 1.03193713E-08
  1 752 9.92322028E-09
  1 753 9.32396257E-09
  1 754 8.60924638E-09
  1 755 8.03115865E-09
  1 756 7.64981442E-09
  1 757 7.29197926E-09
  1 758 6.94005111E-09
  1 759 6.81945736E-09
  1 760 6.76663113E-09
  1 761 6.57124682E-09
  1 762 6.09487035E-09
  1 763 5.64238649E-09
  1 764 5.15210944E-09
  1 765 4.64685041E-09
  1 766 4.41764073E-09
  1 767 4.34161758E-09
  1 768 4.28827546E-09
  1 769 4.22754007E-09
  1 770 4.26360428E-09
  1 771 4.47958575E-09
  1 772 4.93695087E-09
  1 773 5.48792350E-09
  1 774 5.93644999E-09
  1 775 6.23863275E-09
  1 776 6.44220981E-09
  1 777 6.63824194E-09
  1 778 7.02230681E-09
  1 779 7.23327114E-09
  1 780 7.33906441E-09
  1 781 7.49062675E-09
  1 782 7.64974406E-09
  1 783 7.97965025E-09
  1 784 8.43417198E-09
  1 785 8.59579513E-09
  1 786 8.69453396E-09
  1 787 8.64547271E-09
  1 788 8.60827070E-09
  1 789 8.81220564E-09
  1 790 9.22649446E-09
  1 791 9.75634610E-09
  1 792 1.01373047E-08
  1 793 1.06391563E-08
  1 794 1.10127762E-08
  1 795 1.11880812E-08
  1 796 1.11364939E-08
  1 797 1.13530858E-08
  1 798 1.14568255E-08
  1 799 1.15141131E-08
  1 800 1.17544436E-08
  1 801 7.15358208E-09
  1 802 7.08345848E-09
  1 803 7.06966609E-09
  1 804 7.18732385E-09
  1 805 7.42087538E-09
  1 806 7.56788162E-09
  1 807 7.81808385E-09
  1 808 8.07378368E-09
  1 809 8.14802356E-09
  1 810 7.89790140E-09
  1 811 7.50766599E-09
  1 812 7.00572509E-09
  1 813 6.54963578E-09
  1 814 6.18738162E-09
  1 815 6.04523773E-09
  1 816 5.88022259E-09
  1 817 5.61967655E-09
  1 818 5.34771392E-09
  1 819 5.21024433E-09
  1 820 5.19681951E-09
  1 821 5.38026534E-09
  1 822 5.78863397E-09
  1 823 6.37523705E-09
  1 824 6.75631958E-09
  1 825 6.96406651E-09
  1 826 7.36819946E-09
  1 827 7.81794404E-09
  1 828 7.98862247E-09
  1 829 7.92805232E-09
  1 830 7.82849901E-09
  1 831 7.58259489E-09
  1 832 7.47536931E-09
  1 833 7.25001711E-09
  1 834 7.17506514E-09
  1 835 7.16995372E-09
  1 836 7.26015894E-09
  1 837 7.61517857E-09
  1 838 8.05848283E-09
  1 839 8.37769600E-09
  1 840 8.87240123E-09
  1 841 9.37950015E-09
  1 842 9.85712864E-09
  1 843 1.03932948E-08
  1 844 1.08073126E-08
  1 845 1.11723662E-08
  1 846 1.12089361E-08
  1 847 1.13860297E-08
  1 848 1.15896087E-08
  1 849 1.16750353E-08
  1 850 1.15454647E-08
  1 851 1.13195403E-08
  1 852 1.13486079E-08
  1 853 1.13679825E-08
  1 854 1.13475954E-08
  1 855 1.14509813E-08
  1 856 1.17260851E-08
  1 857 1.18522264E-08
  1 858 1.20482149E-08
  1 859 1.24596964E-08
  1 860 1.29057164E-08
  1 861 1.33821040E-08
  1 862 1.38463119E-08
  1 863 1.42248899E-08
  1 864 1.45618695E-08
  1 865 1.47064504E-08
  1 866 1.48193885E-08
  1 867 1.48127118E-08
  1 868 1.48688195E-08
  1 869 1.47902990E-08
  1 870 1.44702617E-08
  1 871 1.38787442E-08
  1 872 1.31405134E-08
  1 873 1.24707521E-08
  1 874 1.15784044E-08
  1 875 1.06369250E-08
  1 876 9.93065069E-09
  1 877 9.26411665E-09
  1 878 8.75345798E-09
  1 879 8.35650842E-09
  1 880 7.79852784E-09
  1 881 7.02742620E-09
  1 882 6.33241759E-09
  1 883 5.75247171E-09
  1 884 5.10698309E-09
  1 885 4.70302055E-09
  1 886 4.54064411E-09
  1 887 4.40197381E-09
  1 888 4.39970325E-09
  1 889 4.60147030E-09
  1 890 4.76374723E-09
  1 891 4.99155384E-09
  1 892 5.12047649E-09
  1 893 5.12340907E-09
  1 894 5.08848777E-09
  1 895 5.15950476E-09
  1 896 5.40306238E-09
  1 897 5.83033015E-09
  1 898 6.13461981E-09
  1 899 6.42252418E-09
  1 900 6.73625539E-09
  1 901 6.97823158E-09
  1 902 7.17088613E-09
  1 903 7.43608569E-09
  1 904 7.57770523E-09
  1 905 7.68250592E-09
  1 906 7.81085417E-09
  1 907 8.16774545E-09
  1 908 8.52024352E-09
  1 909 9.00682190E-09
  1 910 9.39809113E-09
  1 911 9.78644072E-09
  1 912 1.00734574E-08
  1 913 1.03899749E-08
  1 914 1.06389508E-08
  1 915 1.11459791E-08
  1 916 1.14667179E-08
  1 917 1.18438628E-08
  1 918 1.22960407E-08
  1 919 1.25307894E-08
  1 920 1.26768623E-08
  1 921 1.26150731E-08
  1 922 1.24609422E-08
  1 923 1.20396306E-08
  1 924 1.15272047E-08
  1 925 1.09977877E-08
  1 926 1.07159432E-08
  1 927 1.03558390E-08
  1 928 1.00728744E-08
  1 929 9.89869135E-09
  1 930 9.75359298E-09
  1 931 9.69874175E-09
  1 932 9.67162177E-09
  1 933 9.61796132E-09
  1 934 9.20222099E-09
  1 935 8.93874414E-09
  1 936 8.57881872E-09
  1 937 8.12030168E-09
  1 938 7.89045133E-09
  1 939 7.77512837E-09
  1 940 7.79851635E-09
  1 941 7.67089151E-09
  1 942 7.96403483E-09
  1 943 8.51715107E-09
  1 944 9.03986421E-09
  1 945 9.55758287E-09
  1 946 9.90305429E-09
  1 947 1.02447641E-08
  1 948 1.04870403E-08
  1 949 1.05456418E-08
  1 950 1.05032748E-08
  1 951 1.03400953E-08
  1 952 1.00813498E-08
  1 953 9.56287406E-09
  1 954 8.82912348E-09
  1 955 8.11436310E-09
  1 956 7.66222093E-09
  1 957 7.34241700E-09
  1 958 6.91301268E-09
  1 959 6.67702889E-09
  1 960 6.71341390E-09
  1 961 6.55875443E-09
  1 962 6.22393748E-09
  1 963 5.73934751E-09
  1 964 5.28059879E-09
  1 965 4.75316267E-09
  1 966 4.36979198E-09
  1 967 4.30485208E-09
  1 968 4.28640624E-09
  1 969 4.21554208E-09
  1 970 4.23472674E-09
  1 971 4.38819597E-09
  1 972 4.76201513E-09
  1 973 5.27422693E-09
  1 974 5.81835953E-09
  1 975 6.11623881E-09
  1 976 6.38184204E-09
  1 977 6.53455564E-09
  1 978 6.87410193E-09
  1 979 7.15986766E-09
  1 980 7.32171558E-09
  1 981 7.47718331E-09
  1 982 7.57868551E-09
  1 983 7.89821969E-09
  1 984 8.25729492E-09
  1 985 8.50905144E-09
  1 986 8.59457108E-09
  1 987 8.58556152E-09
  1 988 8.54322003E-09
  1 989 8.70157480E-09
  1 990 9.05627247E-09
  1 991 9.58755555E-09
  1 992 9.95144180E-09
  1 993 1.04820157E-08
  1 994 1.08502893E-08
  1 995 1.10869738E-08
  1 996 1.11380147E-08
  1 997 1.12103805E-08
  1 998 1.14151198E-08
  1 999 1.14162035E-08
  1 1000 1.16603410E-08
  1 1001 7.26456208E-09
  1 1002 7.14334078E-09
  1 1003 7.15907965E-09
  1 1004 7.21890109E-09
  1 1005 7.42054596E-09
  1 1006 7.58244806E-09
  1 1007 7.80953469E-09
  1 1008 8.03112611E-09
  1 1009 8.29529082E-09
  1 1010 8.16552049E-09
  1 1011 7.79541941E-09
  1 1012 7.24825986E-09
  1 1013 6.77750655E-09
  1 1014 6.34307432E-09
  1 1015 6.12194493E-09
  1 1016 6.02600103E-09
  1 1017 5.80275754E-09
  1 1018 5.53530413E-09
  1 1019 5.35609795E-09
  1 1020 5.32195890E-09
  1 1021 5.45806402E-09
  1 1022 5.75239044E-09
  1 1023 6.33599553E-09
  1 1024 6.86325475E-09
  1 1025 7.14021065E-09
  1 1026 7.39893296E-09
  1 1027 7.82043700E-09
  1 1028 8.12275293E-09
  1 1029 8.12581332E-09
  1 1030 8.00104765E-09
  1 1031 7.76947347E-09
  1 1032 7.70352582E-09
  1 1033 7.50260078E-09
  1 1034 7.31738058E-09
  1 1035 7.28922329E-09
  1 1036 7.27086012E-09
  1 1037 7.52688061E-09
  1 1038 7.89558263E-09
  1 1039 8.27276708E-09
  1 1040 8.67352579E-09
  1 1041 9.21329628E-09
  1 1042 9.67719461E-09
  1 1043 1.02208832E-08
  1 1044 1.06415222E-08
  1 1045 1.10840378E-08
  1 1046 1.11994455E-08
  1 1047 1.12486108E-08
  1 1048 1.15367931E-08
  1 1049 1.16423816E-08
  1 1050 1.15964784E-08
  1 1051 1.13606619E-08
  1 1052 1.12766666E-08
  1 1053 1.13391363E-08
  1 1054 1.13220059E-08
  1 1055 1.14242468E-08
  1 1056 1.16039065E-08
  1 1057 1.18251719E-08
  1 1058 1.18888737E-08
  1 1059 1.22755752E-08
  1 1060 1.27410317E-08
  1 1061 1.32462184E-08
  1 1062 1.36807550E-08
  1 1063 1.41294317E-08
  1 1064 1.45041903E-08
  1 1065 1.46802601E-08
  1 1066 1.47944250E-08
  1 1067 1.48374737E-08
  1 1068 1.48191060E-08
  1 1069 1.48543615E-08
  1 1070 1.45321878E-08
  1 1071 1.40949177E-08
  1 1072 1.33558714E-08
  1 1073 1.26957130E-08
  1 1074 1.19123377E-08
  1 1075 1.09857282E-08
  1 1076 1.01845072E-08
  1 1077 9.52869282E-09
  1 1078 8.91509169E-09
  1 1079 8.55540402E-09
  1 1080 8.07314443E-09
  1 1081 7.39169358E-09
  1 1082 6.55353213E-09
  1 1083 5.93368764E-09
  1 1084 5.31075142E-09
  1 1085 4.81588955E-09
  1 1086 4.56128486E-09
  1 1087 4.45245316E-09
  1 1088 4.42167411E-09
  1 1089 4.57525727E-09
  1 1090 4.72771825E-09
  1 1091 4.88602969E-09
  1 1092 5.11800129E-09
  1 1093 5.17527287E-09
  1 1094 5.13047726E-09
  1 1095 5.17858757E-09
  1 1096 5.35888760E-09
  1 1097 5.76649507E-09
  1 1098 6.08913350E-09
  1 1099 6.46256721E-09
  1 1100 6.73585909E-09
  1 1101 7.02347811E-09
  1 1102 7.25549226E-09
  1 1103 7.41624249E-09
  1 1104 7.60787641E-09
  1 1105 7.74258311E-09
  1 1106 7.80137932E-09
  1 1107 8.06323943E-09
  1 1108 8.39444651E-09
  1 1109 8.88363711E-09
  1 1110 9.23064773E-09
  1 1111 9.66585936E-09
  1 1112 9.97578249E-09
  1 1113 1.02948551E-08
  1 1114 1.05129979E-08
  1 1115 1.09474125E-08
  1 1116 1.13556985E-08
  1 1117 1.16131290E-08
  1 1118 1.21218748E-08
  1 1119 1.24133727E-08
  1 1120 1.26091275E-08
  1 1121 1.26270973E-08
  1 1122 1.24775238E-08
  1 1123 1.21665382E-08
  1 1124 1.16358850E-08
  1 1125 1.11013545E-08
  1 1126 1.06930803E-08
  1 1127 1.04308074E-08
  1 1128 1.00664896E-08
  1 1129 9.89780268E-09
  1 1130 9.70084098E-09
  1 1131 9.60465013E-09
  1 1132 9.60421300E-09
  1 1133 9.53673488E-09
  1 1134 9.21535962E-09
  1 1135 8.88201363E-09
  1 1136 8.59754857E-09
  1 1137 8.10741667E-09
  1 1138 7.81290905E-09
  1 1139 7.67677406E-09
  1 1140 7.65894537E-09
  1 1141 7.62148699E-09
  1 1142 7.74211707E-09
  1 1143 8.19324415E-09
  1 1144 8.79726086E-09
  1 1145 9.31275951E-09
  1 1146 9.76021099E-09
  1 1147 1.00425114E-08
  1 1148 1.04083741E-08
  1 1149 1.05304707E-08
  1 1150 1.04875208E-08
  1 1151 1.03435632E-08
  1 1152 1.01578906E-08
  1 1153 9.73215962E-09
  1 1154 9.07648705E-09
  1 1155 8.29723594E-09
  1 1156 7.75447241E-09
  1 1157 7.38712087E-09
  1 1158 6.97782864E-09
  1 1159 6.62837640E-09
  1 1160 6.55907277E-09
  1 1161 6.53780284E-09
  1 1162 6.31965898E-09
  1 1163 5.84208583E-09
  1 1164 5.37713909E-09
  1 1165 4.88917428E-09
  1 1166 4.39432673E-09
  1 1167 4.26432215E-09
  1 1168 4.26350706E-09
  1 1169 4.20706706E-09
  1 1170 4.22916058E-09
  1 1171 4.33540271E-09
  1 1172 4.63523930E-09
  1 1173 5.07718871E-09
  1 1174 5.62816731E-09
  1 1175 6.03051962E-09
  1 1176 6.31606177E-09
  1 1177 6.50748596E-09
  1 1178 6.74824137E-09
  1 1179 7.11096155E-09
  1 1180 7.32199693E-09
  1 1181 7.47679713E-09
  1 1182 7.59453654E-09
  1 1183 7.81065065E-09
  1 1184 8.07288596E-09
  1 1185 8.38567331E-09
  1 1186 8.50630586E-09
  1 1187 8.50234797E-09
  1 1188 8.52949982E-09
  1 1189 8.59942139E-09
  1 1190 8.91525393E-09
  1 1191 9.39435653E-09
  1 1192 9.83248224E-09
  1 1193 1.02532516E-08
  1 1194 1.06625169E-08
  1 1195 1.10272521E-08
  1 1196 1.11177878E-08
  1 1197 1.11096550E-08
  1 1198 1.13441257E-08
  1 1199 1.13746430E-08
  1 1200 1.15171798E-08
  1 1201 7.45823613E-09
  1 1202 7.21690116E-09
  1 1203 7.21335369E-09
  1 1204 7.28476747E-09
  1 1205 7.49110055E-09
  1 1206 7.62594585E-09
  1 1207 7.80550268E-09
  1 1208 7.99902519E-09
  1 1209 8.35364785E-09
  1 1210 8.41332040E-09
  1 1211 8.06772232E-09
  1 1212 7.56144223E-09
  1 1213 7.04169801E-09
  1 1214 6.52757513E-09
  1 1215 6.30468528E-09
  1 1216 6.14322426E-09
  1 1217 6.00196588E-09
  1 1218 5.75308497E-09
  1 1219 5.50388044E-09
  1 1220 5.48933919E-09
  1 1221 5.55979899E-09
  1 1222 5.81338055E-09
  1 1223 6.27293894E-09
  1 1224 6.93494682E-09
  1 1225 7.34238825E-09
  1 1226 7.51527142E-09
  1 1227 7.88853337E-09
  1 1228 8.24820743E-09
  1 1229 8.32246674E-09
  1 1230 8.18143888E-09
  1 1231 8.00859296E-09
  1 1232 7.93705694E-09
  1 1233 7.73252278E-09
  1 1234 7.56661344E-09
  1 1235 7.46793945E-09
  1 1236 7.34837629E-09
  1 1237 7.53339848E-09
  1 1238 7.75718231E-09
  1 1239 8.19275802E-09
  1 1240 8.54851461E-09
  1 1241 9.08175300E-09
  1 1242 9.57495798E-09
  1 1243 1.00544737E-08
  1 1244 1.04844638E-08
  1 1245 1.09376575E-08
  1 1246 1.11659597E-08
  1 1247 1.11523162E-08
  1 1248 1.14524292E-08
  1 1249 1.16339457E-08
  1 1250 1.16416648E-08
  1 1251 1.14795130E-08
  1 1252 1.13043991E-08
  1 1253 1.13375492E-08
  1 1254 1.12981885E-08
  1 1255 1.13806882E-08
  1 1256 1.15062053E-08
  1 1257 1.17567696E-08
  1 1258 1.18003989E-08
  1 1259 1.21061156E-08
  1 1260 1.25457154E-08
  1 1261 1.30997436E-08
  1 1262 1.35624037E-08
  1 1263 1.40187034E-08
  1 1264 1.43805675E-08
  1 1265 1.46571616E-08
  1 1266 1.47546212E-08
  1 1267 1.48122383E-08
  1 1268 1.47987349E-08
  1 1269 1.48630863E-08
  1 1270 1.46106759E-08
  1 1271 1.42700952E-08
  1 1272 1.36181311E-08
  1 1273 1.29497839E-08
  1 1274 1.21849595E-08
  1 1275 1.13516336E-08
  1 1276 1.04621950E-08
  1 1277 9.82165972E-09
  1 1278 9.17223763E-09
  1 1279 8.68769120E-09
  1 1280 8.35312296E-09
  1 1281 7.73975784E-09
  1 1282 6.86173618E-09
  1 1283 6.15226501E-09
  1 1284 5.50983864E-09
  1 1285 4.96345568E-09
  1 1286 4.60786475E-09
  1 1287 4.51870825E-09
  1 1288 4.45813141E-09
  1 1289 4.53004820E-09