# File generated by Flopy version 3.6.0 on 03/12/2025 at 15:04:58.
BEGIN options
  PRINT_OPTION  summary
  COMPLEXITY  complex
END options

BEGIN linear
  LINEAR_ACCELERATION  bicgstab
END linear

