# File generated by Flopy version 3.6.0 on 03/18/2025 at 15:16:53.
BEGIN options
  BUDGET  FILEOUT  Reference.cbb
  HEAD  FILEOUT  Reference.hds
END options

BEGIN period  1
  SAVE  HEAD  ALL
  SAVE  BUDGET  ALL
  PRINT  HEAD  LAST
END period  1

