# File generated by Flopy version 3.6.0 on 03/26/2025 at 15:00:47.
BEGIN options
END options

BEGIN dimensions
  MAXBOUND  5
END dimensions

BEGIN period  1
  1 1932 -3.00000000E-02
  1 7411 -2.00000000E-02
  1 13734 -4.00000000E-02
  1 19589 -3.00000000E-02
  1 26933 -9.00000000E-02
END period  1

