# File generated by Flopy version 3.6.0 on 03/12/2025 at 15:05:01.
BEGIN griddata
  strt
    INTERNAL  FACTOR  1.0
        25.00000000      23.27998986      22.33698021      21.76052819      21.38685197      21.13535332      20.96100959      20.83811704      20.75063019      20.68937348      20.64652119      20.61788257      20.59962750      20.59079166      20.58791951      20.58895289      20.59350054      20.60233616      20.61516339      20.62995259
        20.64560757      20.66227602      20.67953530      20.69680035      20.71322191      20.72581558      20.73419001      20.73854555      20.73921702      20.73638697      20.73150610      20.72412312      20.71439205      20.70244908      20.68844610      20.67281564      20.65570114      20.63672130      20.61612579      20.59399081
        20.57037530      20.54593486      20.52119455      20.49593614      20.46826840      20.43737696      20.40462676      20.37087403      20.33685975      20.30384723      20.27360538      20.24610627      20.22186444      20.20058202      20.18190379      20.16545807      20.15056889      20.13641276      20.12282517      20.10963793
        20.09644095      20.08382249      20.07239499      20.06225159      20.05284534      20.04252991      20.03077896      20.01798424      20.00322881      19.98744859      19.97040126      19.95203824      19.93230885      19.91192350      19.89128397      19.87025095      19.84889179      19.82784343      19.80686129      19.78630280
        19.76739160      19.75016534      19.73379007      19.71842444      19.70427797      19.69116830      19.67815358      19.66545588      19.65329469      19.64119833      19.62922597      19.61770005      19.60620595      19.59492060      19.58348332      19.57185130      19.55946291      19.54632371      19.53212252      19.51698699
        19.50101849      19.48433618      19.46637421      19.44722587      19.42679189      19.40513979      19.38200527      19.35745033      19.33166695      19.30447568      19.27610698      19.24674380      19.21666976      19.18626072      19.15634835      19.12798679      19.10218890      19.07987611      19.06170031      19.04832748
        19.04012928      19.03696787      19.03829680      19.04330399      19.05105682      19.06065392      19.07125119      19.08222675      19.09312479      19.10352489      19.11318717      19.12194638      19.12973311      19.13652920      19.14229954      19.14704227      19.15077095      19.15351264      19.15530514      19.15616969
        19.15615806      19.15520520      19.15323586      19.15019807      19.14602125      19.14064252      19.13396073      19.12585409      19.11619679      19.10477011      19.09137480      19.07593166      19.05820940      19.03793899      19.01471100      18.98813040      18.95792604      18.92415155      18.88655325      18.84492794
        18.79942215      18.74970565      18.69547748      18.63700662      18.57480257      18.50903908      18.43975081      18.36754731      18.29261425      18.21466170      18.13430315      18.05283318      17.97080915      17.88859444      17.80716553      17.72687885      17.64775974      17.57009156      17.49385347      17.41915922
        17.34625459      17.27529565      17.20576388      17.13733177      17.07000003      17.00312240      16.93663516      16.87076352      16.80521242      16.73972844      16.67402983      16.60802583      16.54159723      16.47400081      16.40426706      16.33170140      16.25578238      16.17578590      16.09090572      16.00000000
        25.00000000      23.90052463      23.07907177      22.49736459      22.08415925      21.78929551      21.57625426      21.42068596      21.30649857      21.22383993      21.16387779      21.12037120      21.08905608      21.06568647      21.04824279      21.03793123      21.03378920      21.03456259      21.03932441      21.04652965
        21.05519565      21.06466704      21.07324635      21.08089254      21.08526560      21.08549140      21.08165350      21.07379779      21.06202355      21.04760814      21.03174314      21.01436746      20.99513231      20.97418170      20.95159298      20.92812840      20.90324867      20.87682591      20.84883779      20.81985005
        20.79097180      20.76233138      20.73369229      20.70416333      20.67313855      20.64069257      20.60738016      20.57426997      20.54231306      20.51201191      20.48389960      20.45761531      20.43341033      20.41168859      20.39236207      20.37503335      20.35981322      20.34639575      20.33429769      20.32360374
        20.31319185      20.30230472      20.29080562      20.27840733      20.26529521      20.25158387      20.23647465      20.21950593      20.20017830      20.17881624      20.15598002      20.13216878      20.10742679      20.08198705      20.05638636      20.03091574      20.00576640      19.98103856      19.95667201      19.93267004
        19.90972342      19.88841145      19.86848258      19.84962357      19.83167510      19.81441884      19.79751259      19.78081193      19.76419441      19.74759416      19.73080157      19.71384178      19.69673392      19.67959066      19.66239485      19.64519103      19.62788378      19.61040706      19.59254525      19.57396636
        19.55469731      19.53468094      19.51372854      19.49162318      19.46822872      19.44337777      19.41720182      19.38966424      19.36087408      19.33079388      19.29947822      19.26712523      19.23389536      19.20022046      19.16687347      19.13498847      19.10585276      19.08060989      19.06012300      19.04521389
        19.03635255      19.03332989      19.03541951      19.04157347      19.05063237      19.06149218      19.07323199      19.08524700      19.09704658      19.10821888      19.11853326      19.12784197      19.13604729      19.14312333      19.14905823      19.15385799      19.15758828      19.16030708      19.16206739      19.16291830
        19.16286749      19.16187443      19.15984597      19.15672402      19.15243825      19.14690198      19.14002356      19.13170180      19.12180972      19.11008168      19.09624289      19.08018272      19.06174855      19.04072136      19.01676606      18.98957933      18.95902685      18.92495394      18.88704868      18.84513122
        18.79929832      18.74938566      18.69501412      18.63629325      18.57372018      18.50739835      18.43752571      18.36461118      18.28877649      18.21020281      18.12989397      18.04848945      17.96628708      17.88403978      17.80273654      17.72281830      17.64399624      17.56634140      17.49022597      17.41574729
        17.34293502      17.27189801      17.20248876      17.13435465      17.06706381      17.00025689      16.93403249      16.86828648      16.80265903      16.73718600      16.67174736      16.60610046      16.54011463      16.47288404      16.40329224      16.33090471      16.25511829      16.17517945      16.09053452      16.00000000
        25.00000000      24.23186254      23.57437568      23.05500520      22.65669206      22.35414740      22.12499889      21.95045692      21.81702562      21.71546080      21.63812734      21.57817189      21.53084055      21.49453557      21.46873177      21.45322008      21.44509159      21.44135651      21.43976287      21.44005418
        21.44046374      21.43969070      21.43736261      21.43283084      21.42455581      21.41309105      21.39804966      21.38019327      21.36018465      21.33807937      21.31328237      21.28605279      21.25750309      21.22826872      21.19823312      21.16749972      21.13624184      21.10419882      21.07145539      21.03866779
        21.00579287      20.97251871      20.93899280      20.90503096      20.87153436      20.83903675      20.80764126      20.77684086      20.74717693      20.71852253      20.69106827      20.66488416      20.64055050      20.61851120      20.59865847      20.58045030      20.56373781      20.54942004      20.53655718      20.52445965
        20.51258183      20.49963795      20.48538320      20.46994793      20.45311375      20.43469143      20.41442831      20.39251394      20.36918550      20.34462387      20.31899075      20.29231020      20.26494603      20.23665111      20.20764263      20.17902440      20.15087038      20.12330248      20.09615197      20.06935437
        20.04289611      20.01732375      19.99296218      19.96946549      19.94654146      19.92422536      19.90266900      19.88133547      19.85994307      19.83857607      19.81695643      19.79494666      19.77279804      19.75082688      19.72919609      19.70786858      19.68678025      19.66569018      19.64443380      19.62258819
        19.60017805      19.57719114      19.55333285      19.52840298      19.50241853      19.47516238      19.44648910      19.41649495      19.38521834      19.35253596      19.31844353      19.28299243      19.24637787      19.20910567      19.17199872      19.13623203      19.10324836      19.07447233      19.05112022      19.03443005
        19.02514984      19.02294439      19.02669937      19.03492281      19.04612347      19.05899246      19.07253132      19.08610358      19.09921070      19.11146413      19.12265940      19.13266594      19.14138851      19.14881640      19.15499695      19.15998527      19.16384819      19.16667352      19.16850938      19.16938879
        19.16931990      19.16830753      19.16628334      19.16315404      19.15884335      19.15325081      19.14628608      19.13778951      19.12766136      19.11567182      19.10152923      19.08500609      19.06603070      19.04437003      19.01973806      18.99192786      18.96074898      18.92596558      18.88747943      18.84513901
        18.79883289      18.74832101      18.69324327      18.63366838      18.57006840      18.50267872      18.43183656      18.35793734      18.28118603      18.20216636      18.12151222      18.03957478      17.95702904      17.87484489      17.79383839      17.71430412      17.63589562      17.55856780      17.48262178      17.40824798
        17.33551373      17.26456619      17.19545056      17.12771043      17.06077132      16.99423350      16.92803765      16.86219017      16.79666964      16.73162977      16.66667951      16.60164874      16.53621280      16.46922357      16.39996555      16.32799205      16.25270597      16.17342624      16.08954446      16.00000000
        25.00000000      24.43383894      23.91679687      23.47728181      23.11826444      22.83012850      22.60127993      22.42103919      22.27833907      22.16448189      22.07333504      22.00026192      21.94361576      21.90238864      21.87475891      21.85605557      21.84288322      21.83244133      21.82243070      21.81243581
        21.80270160      21.79270406      21.78063449      21.76516479      21.74684064      21.72584340      21.70168283      21.67489348      21.64609970      21.61514168      21.58166343      21.54622081      21.50975911      21.47319063      21.43636798      21.39916878      21.36190825      21.32467084      21.28791314      21.25128043
        21.21402058      21.17629098      21.13894625      21.10292272      21.06907070      21.03758261      21.00800592      20.97925845      20.95143764      20.92377559      20.89667085      20.87061807      20.84596243      20.82281685      20.80098456      20.78019630      20.76059917      20.74272796      20.72601119      20.70918180
        20.69237835      20.67521626      20.65693999      20.63691789      20.61515761      20.59193352      20.56750217      20.54237086      20.51658240      20.49000483      20.46257659      20.43390421      20.40436270      20.37428170      20.34373834      20.31314333      20.28265569      20.25245963      20.22250976      20.19262637
        20.16251810      20.13249799      20.10309634      20.07447667      20.04662099      20.01935885      19.99272658      19.96664965      19.94092362      19.91522873      19.88951576      19.86373714      19.83788121      19.81222738      19.78695182      19.76197987      19.73732820      19.71287651      19.68850426      19.66396290
        19.63901197      19.61357890      19.58739453      19.56015459      19.53193614      19.50261085      19.47187149      19.43971694      19.40621605      19.37108429      19.33423320      19.29568080      19.25551353      19.21433380      19.17301804      19.13269713      19.09487746      19.06143091      19.03437458      19.01566864
        19.00636381      19.00582726      19.01239220      19.02384783      19.03820288      19.05393738      19.06991705      19.08548956      19.10022066      19.11379466      19.12601648      19.13679122      19.14608973      19.15395338      19.16050980      19.16581916      19.16993106      19.17292297      19.17486049      19.17577966
        19.17571248      19.17468746      19.17266902      19.16954982      19.16525025      19.15965451      19.15264983      19.14408478      19.13380145      19.12161668      19.10726559      19.09045888      19.07100420      19.04868055      19.02325703      18.99464355      18.96263523      18.92695656      18.88758904      18.84443542
        18.79726403      18.74565112      18.68932872      18.62848602      18.56352699      18.49478751      18.42262063      18.34743836      18.26943239      18.18925467      18.10773631      18.02532761      17.94273762      17.86077400      17.78006846      17.70075497      17.62249976      17.54548696      17.46981642      17.39545092
        17.32267989      17.25201770      17.18334732      17.11603175      17.04945301      16.98316666      16.91717897      16.85149583      16.78627264      16.72166265      16.65730858      16.59309757      16.52862612      16.46262239      16.39418642      16.32286200      16.24850136      16.17062332      16.08813277      16.00000000
        25.00000000      24.57139851      24.16608970      23.80347199      23.49137310      23.22985491      23.01384737      22.83862905      22.69680034      22.58196001      22.48920170      22.41525387      22.35879287      22.31740072      22.28664442      22.26200455      22.23977444      22.21847346      22.19808582      22.17789906
        22.15864569      22.13887239      22.11671119      22.09138560      22.06364935      22.03207505      21.99690757      21.95917251      21.92014937      21.87948878      21.83778006      21.79567318      21.75282520      21.70977531      21.66730448      21.62505759      21.58281448      21.54065200      21.49912710      21.45812921
        21.41737632      21.37720213      21.33848161      21.30204545      21.26831823      21.23736609      21.20819966      21.18036591      21.15331018      21.12647100      21.09946046      21.07256262      21.04563118      21.01881815      20.99273677      20.96763196      20.94360539      20.92006119      20.89718072      20.87458941
        20.85240243      20.83020478      20.80713331      20.78267075      20.75704898      20.73063913      20.70399966      20.67716428      20.64947964      20.62037736      20.59037817      20.55977399      20.52857222      20.49703887      20.46510138      20.43260752      20.39986054      20.36701777      20.33395275      20.30046684
        20.26669871      20.23278692      20.19906180      20.16573334      20.13313465      20.10128100      20.07014066      20.03989108      20.01040131      19.98122212      19.95209494      19.92323471      19.89448192      19.86574386      19.83732092      19.80929555      19.78157635      19.75427466      19.72729035      19.70029068
        19.67307287      19.64562458      19.61763536      19.58866359      19.55868018      19.52757935      19.49505060      19.46090617      19.42516353      19.38752990      19.34790336      19.30629732      19.26257864      19.21713360      19.17080222      19.12473461      19.08071867      19.04134557      19.00958053      18.98834868
        18.97922489      18.98135762      18.99217308      19.00840808      19.02727447      19.04681147      19.06589190      19.08398348      19.10066808      19.11570056      19.12902773      19.14063267      19.15060471      19.15902640      19.16602402      19.17165259      19.17597704      19.17910992      19.18111958      19.18207725
        19.18204353      19.18104226      19.17904476      19.17596759      19.17171246      19.16617260      19.15920564      19.15065176      19.14030294      19.12796597      19.11336282      19.09621566      19.07623985      19.05327535      19.02708834      18.99753810      18.96443364      18.92764958      18.88723953      18.84288115
        18.79418871      18.74077914      18.68253494      18.61977953      18.55299662      18.48252009      18.40857794      18.33188145      18.25266685      18.17130661      18.08874988      18.00575375      17.92297840      17.84082759      17.75982771      17.68029109      17.60204476      17.52508058      17.44931914      17.37507043
        17.30291974      17.23293208      17.16464259      17.09763847      17.03149382      16.96556991      16.89986992      16.83470411      16.77020146      16.70651310      16.64356070      16.58084675      16.51766144      16.45277096      16.38540726      16.31546511      16.24277859      16.16654255      16.08588476      16.00000000
        25.00000000      24.67406098      24.35802792      24.06436598      23.80158706      23.57429100      23.38112018      23.22088500      23.08960162      22.98310320      22.89840866      22.83245355      22.78066330      22.73774206      22.70079063      22.66716542      22.63491634      22.60350976      22.57339355      22.54390517
        22.51348227      22.48103254      22.44632391      22.40906768      22.36895552      22.32569485      22.27994908      22.23255199      22.18455076      22.13615597      22.08701434      22.03759938      21.98874052      21.94041326      21.89281427      21.84510033      21.79750111      21.75083725      21.70541419      21.66117906
        21.61826552      21.57682776      21.53711753      21.50022495      21.46613800      21.43454137      21.40451119      21.37567112      21.34711652      21.31841350      21.28910631      21.25910573      21.22807215      21.19680493      21.16609991      21.13618700      21.10698619      21.07795414      21.04956589      21.02213435
        20.99537572      20.96847296      20.94099022      20.91308773      20.88480719      20.85647276      20.82780502      20.79867054      20.76857384      20.73722555      20.70507170      20.67259517      20.63963760      20.60606368      20.57195941      20.53732049      20.50220974      20.46665309      20.43083124      20.39430725
        20.35717323      20.31965137      20.28211800      20.24492062      20.20846640      20.17301031      20.13846806      20.10474203      20.07187259      20.03970261      20.00778185      19.97615648      19.94492397      19.91373171      19.88277295      19.85227078      19.82218343      19.79234100      19.76281700      19.73348495
        19.70417372      19.67485473      19.64526724      19.61493371      19.58354385      19.55093125      19.51682071      19.48096811      19.44320980      19.40320791      19.36082386      19.31594450      19.26836110      19.21819647      19.16611357      19.11328763      19.06170798      19.01447298      18.97568911      18.95001697
        18.94098548      18.94764662      18.96523330      18.98849547      19.01358033      19.03817572      19.06114324      19.08211996      19.10097236      19.11766502      19.13222707      19.14479546      19.15552360      19.16446491      19.17179455      19.17764839      19.18212848      19.18535461      19.18741356      19.18840238
        19.18839027      19.18742324      19.18548877      19.18249232      19.17832615      19.17288118      19.16599063      19.15747565      19.14710002      19.13461166      19.11974191      19.10220624      19.08170135      19.05800033      19.03082129      19.00009364      18.96573467      18.92752700      18.88533516      18.83881038
        18.78779539      18.73224964      18.67200005      18.60719281      18.53828453      18.46547562      18.38935696      18.31075195      18.22977650      18.14705591      18.06351652      17.97945547      17.89531168      17.81185392      17.72996352      17.64985256      17.57126640      17.49445933      17.41953888      17.34634532
        17.27492618      17.20539847      17.13766172      17.07130085      17.00579816      16.94052054      16.87566262      16.81169470      16.74888550      16.68721778      16.62617611      16.56503709      16.50300014      16.43921096      16.37333698      16.30536580      16.23483818      16.16095575      16.08295103      16.00000000
        25.00000000      24.75466900      24.51174047      24.28095552      24.06864297      23.88067743      23.71834079      23.58143113      23.46844059      23.37673054      23.30314206      23.24311605      23.19260708      23.14713599      23.10507945      23.06459583      23.02516548      22.98612392      22.94702747      22.90636230
        22.86250645      22.81589966      22.76753427      22.71747849      22.66506474      22.61203794      22.55864893      22.50382817      22.44693784      22.38974364      22.33266526      22.27629460      22.22072519      22.16586007      22.11156342      22.05814972      22.00548557      21.95440566      21.90514597      21.85785533
        21.81247211      21.76914996      21.72848278      21.69049884      21.65491109      21.62086694      21.58796060      21.55573490      21.52372330      21.49118570      21.45808867      21.42416779      21.38950194      21.35493029      21.32047739      21.28623130      21.25253057      21.21944557      21.18701109      21.15538763
        21.12447176      21.09383961      21.06327421      21.03280455      21.00209083      20.97106398      20.93949531      20.90748632      20.87496337      20.84203683      20.80863460      20.77449154      20.73965038      20.70415334      20.66810444      20.63138533      20.59400012      20.55580640      20.51715064      20.47794129
        20.43790196      20.39734657      20.35658502      20.31611673      20.27653529      20.23805819      20.20054912      20.16388295      20.12815070      20.09326719      20.05896570      20.02498065      19.99146511      19.95837442      19.92551296      19.89285935      19.86049111      19.82841767      19.79666130      19.76519126
        19.73403504      19.70307558      19.67196648      19.64030526      19.60765374      19.57371668      19.53820929      19.50077074      19.46110893      19.41880035      19.37366846      19.32546079      19.27387849      19.21892278      19.16089148      19.10048417      19.03937455      18.98085132      18.92981602      18.89460722
        18.88544167      18.90115313      18.93053102      18.96449914      18.99798031      19.02881545      19.05629796      19.08058139      19.10191054      19.12042148      19.13629625      19.14979547      19.16112316      19.17045672      19.17805260      19.18406828      19.18863260      19.19188278      19.19394674      19.19495716
        19.19496980      19.19400110      19.19208056      19.18914319      19.18507634      19.17975600      19.17298187      19.16453575      19.15414614      19.14149978      19.12631116      19.10828728      19.08711497      19.06242488      19.03390137      19.00155622      18.96536022      18.92502335      18.88038540      18.83123824
        18.77779068      18.72002919      18.65740201      18.58993974      18.51824095      18.44246619      18.36332035      18.28210217      18.19907559      18.11431389      18.02818508      17.94147943      17.85516685      17.77030514      17.68772619      17.60751146      17.52953890      17.45379819      17.37993029      17.30776443
        17.23733417      17.16894789      17.10221051      17.03678555      16.97232019      16.90840293      16.84534072      16.78354932      16.72301829      16.66352965      16.60439925      16.54477028      16.48397166      16.42166347      16.35780635      16.29228459      16.22453925      16.15360721      16.07888851      16.00000000
        25.00000000      24.82149659      24.64214233      24.46929584      24.30779288      24.16161136      24.03473175      23.92733473      23.83731708      23.76301306      23.70084796      23.64662048      23.59692030      23.55058645      23.50614675      23.46207449      23.41686603      23.36804530      23.31560604      23.26015195
        23.20296384      23.14354571      23.08270986      23.02109919      22.95923310      22.89747195      22.83512100      22.77127269      22.70569560      22.63987055      22.57425861      22.50972433      22.44601418      22.38321444      22.32143449      22.26152086      22.20385124      22.14814277      22.09448435      22.04341853
        21.99533680      21.94978974      21.90677101      21.86585554      21.82645490      21.78844953      21.75175914      21.71590947      21.68019290      21.64400696      21.60720890      21.56992116      21.53227249      21.49472404      21.45718558      21.41980338      21.38272937      21.34648866      21.31103158      21.27634435
        21.24234425      21.20893418      21.17576283      21.14254222      21.10924952      21.07555750      21.04149974      21.00745492      20.97354245      20.93924379      20.90448663      20.86898704      20.83261919      20.79542455      20.75750251      20.71882648      20.67934414      20.63914330      20.59806572      20.55620306
        20.51350112      20.47012790      20.42653358      20.38330466      20.34086532      20.29951732      20.25906274      20.21968704      20.18156689      20.14439151      20.10789415      20.07202560      20.03654230      20.00142621      19.96660355      19.93212722      19.89788951      19.86397444      19.83057807      19.79756680
        19.76486948      19.73238155      19.69970294      19.66652831      19.63256963      19.59731151      19.56029714      19.52118522      19.47963203      19.43507917      19.38729643      19.33607910      19.28104014      19.22180444      19.15781811      19.08895789      19.01596058      18.94024797      18.86651267      18.80996957
        18.80109070      18.83740893      18.88787222      18.93778129      18.98212977      19.02021070      19.05268581      19.08052469      19.10439858      19.12468590      19.14172852      19.15592617      19.16765369      19.17724662      19.18500309      19.19109524      19.19567556      19.19889839      19.20092251      19.20187694
        19.20182319      19.20080158      19.19886485      19.19598376      19.19205080      19.18689585      19.18024903      19.17185206      19.16143450      19.14859379      19.13295556      19.11422721      19.09204035      19.06596435      19.03558680      19.00088477      18.96212288      18.91916561      18.87178127      18.81992012
        18.76378451      18.70293717      18.63687958      18.56597072      18.49061935      18.41100637      18.32824536      18.24334827      18.15631509      18.06747013      17.97787965      17.88873791      17.80098188      17.71543822      17.63279067      17.55335805      17.47678346      17.40257656      17.33039962      17.26016932
        17.19157625      17.12451436      17.05882782      16.99458854      16.93161060      16.86976337      16.80925145      16.75001595      16.69179300      16.63408296      16.57641377      16.51841555      16.45960629      16.39964326      16.33845675      16.27595130      16.21161067      16.14463860      16.07428471      16.00000000
        25.00000000      24.88035452      24.75864536      24.63987008      24.52839354      24.42732080      24.33804570      24.26166706      24.19668715      24.14038305      24.09015809      24.04420394      23.99923302      23.95477191      23.90809175      23.85658095      23.79952588      23.73700355      23.67000041      23.60069048
        23.53081187      23.46069141      23.39017485      23.31861383      23.24680525      23.17482927      23.10237135      23.02955762      22.95643081      22.88245932      22.80832102      22.73458753      22.66169868      22.59019757      22.52067279      22.45354311      22.38971792      22.32900494      22.27127354      22.21671278
        22.16510640      22.11597875      22.06865883      22.02354237      21.98037876      21.93895335      21.89902406      21.85980099      21.82049471      21.78081692      21.74089123      21.70099128      21.66055548      21.61988230      21.57964677      21.54015853      21.50109088      21.46268256      21.42499814      21.38786002
        21.35103499      21.31463507      21.27854763      21.24273383      21.20714506      21.17184521      21.13651922      21.10127440      21.06627946      21.03082692      20.99472262      20.95791091      20.92026039      20.88169778      20.84227720      20.80204353      20.76076652      20.71855776      20.67540111      20.63123881
        20.58626785      20.54055600      20.49427941      20.44809932      20.40276367      20.35872346      20.31592133      20.27412034      20.23364923      20.19453181      20.15614293      20.11835226      20.08110655      20.04423337      20.00767508      19.97159168      19.93600268      19.90083138      19.86616122      19.83190825
        19.79791499      19.76405063      19.72990844      19.69518555      19.65964627      19.62285296      19.58417006      19.54320943      19.49972641      19.45319230      19.40331205      19.34974291      19.29165806      19.22835758      19.15892884      19.08181297      18.99467894      18.89492961      18.78164962      18.67051330
        18.66401419      18.75333304      18.84043999      18.91207809      18.96914289      19.01488742      19.05230078      19.08342609      19.10938383      19.13096363      19.14877418      19.16338588      19.17537727      19.18512693      19.19289978      19.19892836      19.20340629      19.20649823      19.20836594      19.20915184