# File generated by Flopy version 3.6.0 on 03/12/2025 at 15:42:01.
BEGIN options
END options

BEGIN dimensions
  MAXBOUND  2524
END dimensions

BEGIN period  1
  1 6751 2.66313333E+01 5.00000887E-03 2.65820000E+01
  1 6482 2.66251910E+01 5.00000887E-03 2.65758577E+01
  1 6483 2.66190488E+01 5.00000945E-03 2.65697155E+01
  1 6481 2.66129065E+01 5.00000945E-03 2.65635732E+01
  1 6476 2.65991720E+01 5.00001006E-03 2.65498387E+01
  1 6484 2.65868874E+01 5.00001006E-03 2.65375541E+01
  1 6478 2.65807452E+01 5.00001006E-03 2.65314119E+01
  1 6461 2.65670106E+01 5.00001071E-03 2.65176773E+01
  1 6477 2.65608684E+01 5.00001071E-03 2.65115351E+01
  1 6472 2.65521819E+01 5.00001140E-03 2.65028486E+01
  1 6470 2.65460396E+01 5.00001140E-03 2.64967063E+01
  1 6471 2.65398974E+01 5.00001213E-03 2.64905641E+01
  1 6465 2.65337551E+01 5.00001213E-03 2.64844218E+01
  1 6466 2.65250686E+01 5.00001291E-03 2.64757353E+01
  1 6468 2.65189263E+01 5.00001291E-03 2.64695930E+01
  1 6467 2.65102399E+01 5.00001375E-03 2.64609066E+01
  1 6159 2.65040976E+01 5.00001375E-03 2.64547643E+01
  1 6190 2.64979553E+01 5.00001463E-03 2.64486220E+01
  1 6188 2.64918131E+01 5.00001463E-03 2.64424798E+01
  1 6183 2.64831266E+01 5.00001558E-03 2.64337933E+01
  1 6189 2.64769843E+01 5.00001558E-03 2.64276510E+01
  1 6186 2.64682978E+01 5.00001658E-03 2.64189645E+01
  1 6184 2.64621556E+01 5.00001658E-03 2.64128223E+01
  1 6166 2.64534691E+01 5.00001765E-03 2.64041358E+01
  1 6185 2.64473268E+01 5.00001765E-03 2.63979935E+01
  1 6175 2.64335923E+01 5.00001879E-03 2.63842590E+01
  1 6177 2.64274500E+01 5.00001879E-03 2.63781167E+01
  1 6176 2.64187635E+01 5.00002000E-03 2.63694302E+01
  1 6170 2.64126213E+01 5.00002000E-03 2.63632880E+01
  1 6171 2.64039348E+01 5.00002129E-03 2.63546015E+01
  1 6173 2.63977925E+01 5.00002129E-03 2.63484592E+01
  1 5852 2.63840580E+01 5.00002266E-03 2.63347247E+01
  1 6172 2.63779157E+01 5.00002266E-03 2.63285824E+01
  1 5883 2.63692292E+01 5.00002412E-03 2.63198959E+01
  1 5881 2.63630870E+01 5.00002412E-03 2.63137537E+01
  1 5882 2.63569447E+01 5.00002568E-03 2.63076114E+01
  1 5876 2.63508024E+01 5.00002568E-03 2.63014691E+01
  1 5877 2.63421160E+01 5.00002734E-03 2.62927827E+01
  1 5879 2.63359737E+01 5.00002734E-03 2.62866404E+01
  1 5859 2.63222392E+01 5.00002910E-03 2.62729059E+01
  1 5878 2.63160969E+01 5.00002910E-03 2.62667636E+01
  1 5870 2.63074104E+01 5.00003098E-03 2.62580771E+01
  1 5868 2.63012682E+01 5.00003098E-03 2.62519349E+01
  1 5863 2.62925817E+01 5.00003297E-03 2.62432484E+01
  1 5869 2.62864394E+01 5.00003297E-03 2.62371061E+01
  1 5864 2.62727049E+01 5.00003510E-03 2.62233716E+01
  1 5866 2.62665626E+01 5.00003510E-03 2.62172293E+01
  1 5865 2.62578761E+01 5.00003736E-03 2.62085428E+01
  1 5539 2.62517339E+01 5.00003736E-03 2.62024006E+01
  1 5568 2.62430474E+01 5.00003977E-03 2.61937141E+01
  1 5570 2.62369051E+01 5.00003977E-03 2.61875718E+01
  1 5563 2.62231706E+01 5.00004234E-03 2.61738373E+01
  1 5569 2.62170283E+01 5.00004234E-03 2.61676950E+01
  1 5566 2.62083418E+01 5.00004507E-03 2.61590085E+01
  1 5564 2.62021996E+01 5.00004507E-03 2.61528663E+01
  1 5546 2.61935131E+01 5.00004798E-03 2.61441798E+01
  1 5565 2.61873708E+01 5.00004798E-03 2.61380375E+01
  1 5554 2.61786843E+01 5.00005107E-03 2.61293510E+01
  1 5552 2.61725421E+01 5.00005107E-03 2.61232088E+01
  1 5553 2.61663998E+01 5.00005436E-03 2.61170665E+01
  1 5556 2.61602575E+01 5.00005787E-03 2.61109242E+01
  1 5550 2.61541153E+01 5.00005787E-03 2.61047820E+01
  1 5549 2.61454288E+01 5.00006160E-03 2.60960955E+01
  1 5551 2.61392865E+01 5.00006160E-03 2.60899532E+01
  1 5242 2.61255520E+01 5.00006557E-03 2.60762187E+01
  1 5577 2.61194097E+01 5.00006557E-03 2.60700764E+01
  1 5243 2.61107232E+01 5.00006980E-03 2.60613899E+01
  1 5241 2.61045810E+01 5.00006980E-03 2.60552477E+01
  1 5244 2.60984387E+01 5.00007431E-03 2.60491054E+01
  1 5238 2.60922964E+01 5.00007431E-03 2.60429631E+01
  1 5237 2.60836100E+01 5.00007910E-03 2.60342767E+01
  1 5239 2.60774677E+01 5.00007910E-03 2.60281344E+01
  1 5229 2.60637332E+01 5.00008420E-03 2.60143999E+01
  1 5248 2.60575909E+01 5.00008420E-03 2.60082576E+01
  1 5230 2.60489044E+01 5.00008963E-03 2.59995711E+01
  1 5231 2.60402179E+01 5.00009541E-03 2.59908846E+01
  1 5233 2.60340757E+01 5.00009541E-03 2.59847424E+01
  1 5226 2.60203411E+01 5.00010156E-03 2.59710078E+01
  1 5232 2.60141989E+01 5.00010156E-03 2.59648656E+01
  1 5255 2.60004643E+01 5.00010811E-03 2.59511310E+01
  1 5257 2.59943221E+01 5.00010811E-03 2.59449888E+01
  1 5256 2.59856356E+01 5.00011508E-03 2.59363023E+01
  1 4906 2.59794933E+01 5.00011508E-03 2.59301600E+01
  1 4909 2.59733511E+01 5.00012250E-03 2.59240178E+01
  1 4908 2.59646646E+01 5.00013040E-03 2.59153313E+01
  1 4910 2.59585223E+01 5.00013040E-03 2.59091890E+01
  1 4919 2.59498358E+01 5.00013881E-03 2.59005025E+01
  1 4913 2.59436936E+01 5.00013881E-03 2.58943603E+01
  1 4914 2.59375513E+01 5.00014777E-03 2.58882180E+01
  1 4912 2.59314090E+01 5.00014777E-03 2.58820757E+01
  1 4899 2.59227226E+01 5.00015729E-03 2.58733893E+01
  1 4915 2.59165803E+01 5.00015729E-03 2.58672470E+01
  1 4900 2.59078938E+01 5.00016744E-03 2.58585605E+01
  1 4934 2.59017515E+01 5.00017824E-03 2.58524182E+01
  1 4932 2.58956093E+01 5.00017824E-03 2.58462760E+01
  1 4933 2.58894670E+01 5.00018973E-03 2.58401337E+01
  1 4927 2.58833247E+01 5.00018973E-03 2.58339914E+01
  1 4930 2.58771825E+01 5.00020196E-03 2.58278492E+01
  1 4929 2.58684960E+01 5.00021499E-03 2.58191627E+01
  1 4931 2.58623537E+01 5.00021499E-03 2.58130204E+01
  1 4937 2.58536672E+01 5.00022885E-03 2.58043339E+01
  1 4560 2.58475250E+01 5.00022885E-03 2.57981917E+01
  1 4561 2.58413827E+01 5.00024361E-03 2.57920494E+01
  1 4559 2.58352404E+01 5.00024361E-03 2.57859071E+01
  1 4562 2.58290982E+01 5.00025932E-03 2.57797649E+01
  1 4563 2.58229559E+01 5.00027604E-03 2.57736226E+01
  1 4557 2.58168136E+01 5.00027604E-03 2.57674803E+01
  1 4586 2.58081272E+01 5.00029384E-03 2.57587939E+01
  1 4588 2.58019849E+01 5.00029384E-03 2.57526516E+01
  1 4587 2.57932984E+01 5.00031278E-03 2.57439651E+01
  1 4571 2.57846119E+01 5.00033295E-03 2.57352786E+01
  1 4590 2.57784697E+01 5.00033295E-03 2.57291364E+01
  1 4572 2.57697832E+01 5.00035442E-03 2.57204499E+01
  1 4570 2.57636409E+01 5.00035442E-03 2.57143076E+01
  1 4581 2.57574986E+01 5.00037727E-03 2.57081653E+01
  1 4576 2.57488122E+01 5.00040160E-03 2.56994789E+01
  1 4582 2.57426699E+01 5.00040160E-03 2.56933366E+01
  1 4579 2.57339834E+01 5.00042749E-03 2.56846501E+01
  1 4578 2.57252969E+01 5.00045505E-03 2.56759636E+01
  1 4580 2.57191547E+01 5.00045505E-03 2.56698214E+01
  1 4600 2.57104682E+01 5.00048439E-03 2.56611349E+01
  1 4182 2.57017817E+01 5.00051562E-03 2.56524484E+01
  1 4601 2.56956395E+01 5.00051562E-03 2.56463062E+01
  1 4183 2.56819049E+01 5.00054886E-03 2.56325716E+01
  1 4185 2.56757627E+01 5.00054886E-03 2.56264294E+01
  1 4184 2.56670762E+01 5.00058424E-03 2.56177429E+01
  1 4189 2.56583897E+01 5.00062191E-03 2.56090564E+01
  1 4195 2.56522474E+01 5.00062191E-03 2.56029141E+01
  1 4190 2.56435609E+01 5.00066200E-03 2.55942276E+01
  1 4193 2.56374187E+01 5.00070467E-03 2.55880854E+01
  1 4191 2.56312764E+01 5.00070467E-03 2.55819431E+01
  1 4192 2.56251341E+01 5.00075009E-03 2.55758008E+01
  1 4204 2.56164477E+01 5.00079844E-03 2.55671144E+01
  1 4223 2.56103054E+01 5.00079844E-03 2.55609721E+01
  1 4205 2.56016189E+01 5.00084991E-03 2.55522856E+01
  1 4208 2.55954767E+01 5.00090468E-03 2.55461434E+01
  1 4206 2.55893344E+01 5.00090468E-03 2.55400011E+01
  1 4207 2.55831921E+01 5.00096299E-03 2.55338588E+01
  1 4218 2.55770498E+01 5.00102505E-03 2.55277165E+01
  1 4212 2.55709076E+01 5.00102505E-03 2.55215743E+01
  1 4213 2.55647653E+01 5.00109111E-03 2.55154320E+01
  1 4216 2.55586230E+01 5.00116142E-03 2.55092897E+01
  1 4217 2.55524808E+01 5.00123626E-03 2.55031475E+01
  1 4215 2.55463385E+01 5.00123626E-03 2.54970052E+01
  1 4234 2.55401962E+01 5.00131592E-03 2.54908629E+01
  1 3723 2.55315098E+01 5.00140071E-03 2.54821765E+01
  1 4235 2.55253675E+01 5.00140071E-03 2.54760342E+01
  1 3726 2.55166810E+01 5.00149095E-03 2.54673477E+01
  1 3727 2.55105387E+01 5.00158700E-03 2.54612054E+01
  1 3733 2.55018523E+01 5.00168923E-03 2.54525190E+01
  1 3735 2.54957100E+01 5.00168923E-03 2.54463767E+01
  1 3734 2.54870235E+01 5.00179803E-03 2.54376902E+01
  1 3737 2.54808813E+01 5.00191384E-03 2.54315480E+01
  1 3732 2.54721948E+01 5.00203709E-03 2.54228615E+01
  1 3738 2.54660525E+01 5.00203709E-03 2.54167192E+01
  1 3757 2.54573660E+01 5.00216827E-03 2.54080327E+01
  1 3758 2.54512238E+01 5.00230788E-03 2.54018905E+01
  1 3759 2.54425373E+01 5.00245646E-03 2.53932040E+01
  1 3761 2.54363950E+01 5.00245646E-03 2.53870617E+01
  1 3760 2.54277085E+01 5.00261459E-03 2.53783752E+01
  1 3765 2.54215663E+01 5.00278288E-03 2.53722330E+01
  1 3766 2.54154240E+01 5.00296198E-03 2.53660907E+01
  1 3750 2.54092817E+01 5.00296198E-03 2.53599484E+01
  1 3753 2.54031395E+01 5.00315259E-03 2.53538062E+01
  1 3754 2.53969972E+01 5.00335542E-03 2.53476639E+01
  1 3776 2.53908549E+01 5.00357128E-03 2.53415216E+01
  1 3777 2.53847127E+01 5.00380098E-03 2.53353794E+01
  1 3780 2.53785704E+01 5.00404541E-03 2.53292371E+01
  1 3778 2.53724281E+01 5.00404541E-03 2.53230948E+01
  1 3779 2.53662859E+01 5.00430552E-03 2.53169526E+01
  1 3784 2.53601436E+01 5.00458229E-03 2.53108103E+01
  1 3785 2.53540013E+01 5.00487679E-03 2.53046680E+01
  1 3788 2.53478590E+01 5.00519015E-03 2.52985257E+01
  1 3789 2.53417168E+01 5.00552357E-03 2.52923835E+01
  1 3802 2.53330303E+01 5.00587831E-03 2.52836970E+01
  1 3808 2.53268880E+01 5.00587831E-03 2.52775547E+01
  1 3803 2.53182016E+01 5.00625574E-03 2.52688683E+01
  1 3806 2.53120593E+01 5.00665728E-03 2.52627260E+01
  1 3807 2.53059170E+01 5.00708446E-03 2.52565837E+01
  1 3815 2.52997747E+01 5.00753891E-03 2.52504414E+01
  1 3816 2.52936325E+01 5.00802235E-03 2.52442992E+01
  1 3819 2.52874902E+01 5.00853659E-03 2.52381569E+01
  1 3820 2.52813479E+01 5.00908358E-03 2.52320146E+01
  1 3830 2.52752057E+01 5.00966537E-03 2.52258724E+01
  1 3831 2.52690634E+01 5.01028416E-03 2.52197301E+01
  1 3834 2.52629211E+01 5.01094224E-03 2.52135878E+01
  1 3835 2.52567789E+01 5.01164209E-03 2.52074456E+01
  1 3840 2.52506366E+01 5.01238630E-03 2.52013033E+01
  1 3841 2.52444943E+01 5.01317763E-03 2.51951610E+01
  1 3844 2.52383521E+01 5.01401900E-03 2.51890188E+01
  1 3845 2.52322098E+01 5.01491352E-03 2.51828765E+01
  1 3852 2.52260675E+01 5.01586445E-03 2.51767342E+01
  1 3853 2.52199253E+01 5.01687529E-03 2.51705920E+01
  1 3856 2.52137830E+01 5.01794970E-03 2.51644497E+01
  1 3857 2.52076407E+01 5.01909157E-03 2.51583074E+01
  1 3862 2.52014985E+01 5.02030501E-03 2.51521652E+01
  1 3863 2.51953562E+01 5.02159437E-03 2.51460229E+01
  1 3866 2.51892139E+01 5.02296425E-03 2.51398806E+01
  1 3867 2.51830717E+01 5.02441948E-03 2.51337384E+01
  1 3870 2.51769294E+01 5.02441948E-03 2.51275961E+01
  1 3880 2.51707871E+01 5.02596519E-03 2.51214538E+01
  1 3881 2.51646449E+01 5.02760678E-03 2.51153116E+01
  1 3884 2.51585026E+01 5.02934994E-03 2.51091693E+01
  1 3885 2.51523603E+01 5.03120066E-03 2.51030270E+01
  1 3890 2.51462180E+01 5.03316526E-03 2.50968847E+01
  1 3891 2.51400758E+01 5.03525038E-03 2.50907425E+01
  1 3893 2.51339335E+01 5.03525038E-03 2.50846002E+01
  1 3896 2.51277912E+01 5.03746300E-03 2.50784579E+01
  1 3897 2.51216490E+01 5.03981045E-03 2.50723157E+01
  1 3910 2.51155067E+01 5.04230042E-03 2.50661734E+01
  1 3911 2.51093644E+01 5.04494099E-03 2.50600311E+01
  1 3918 2.51032222E+01 5.04494099E-03 2.50538889E+01
  1 3921 2.50970799E+01 5.04774060E-03 2.50477466E+01
  1 3922 2.50909376E+01 5.05070808E-03 2.50416043E+01
  1 3927 2.50847954E+01 5.05385267E-03 2.50354621E+01
  1 3928 2.50786531E+01 5.05718400E-03 2.50293198E+01
  1 3930 2.50725108E+01 5.05718400E-03 2.50231775E+01
  1 3933 2.50663686E+01 5.06071212E-03 2.50170353E+01
  1 3934 2.50602263E+01 5.06444746E-03 2.50108930E+01
  1 3944 2.50540840E+01 5.06840089E-03 2.50047507E+01
  1 3947 2.50479418E+01 5.06840089E-03 2.49986085E+01
  1 3948 2.50417995E+01 5.07258365E-03 2.49924662E+01
  1 3951 2.50356572E+01 5.07700740E-03 2.49863239E+01
  1 3952 2.50295150E+01 5.08168418E-03 2.49801817E+01
  1 3954 2.50233727E+01 5.08168418E-03 2.49740394E+01
  1 3959 2.50172304E+01 5.08662638E-03 2.49678971E+01
  1 3960 2.50110882E+01 5.09184677E-03 2.49617549E+01
  1 3963 2.50049459E+01 5.09735844E-03 2.49556126E+01
  1 4277 2.49988036E+01 5.09735844E-03 2.49494703E+01
  1 4278 2.49926613E+01 5.10317478E-03 2.49433280E+01
  1 4287 2.49839749E+01 5.10930943E-03 2.49346416E+01
  1 4285 2.49778326E+01 5.10930943E-03 2.49284993E+01
  1 4288 2.49691461E+01 5.11577628E-03 2.49198128E+01
  1 4291 2.49630039E+01 5.12258938E-03 2.49136706E+01
  1 4292 2.49568616E+01 5.12976289E-03 2.49075283E+01
  1 4295 2.49507193E+01 5.12976289E-03 2.49013860E+01
  1 4300 2.49445770E+01 5.13731105E-03 2.48952437E+01
  1 4303 2.49358906E+01 5.14524808E-03 2.48865573E+01
  1 4301 2.49297483E+01 5.14524808E-03 2.48804150E+01
  1 4306 2.49210618E+01 5.15358808E-03 2.48717285E+01
  1 4307 2.49149196E+01 5.16234501E-03 2.48655863E+01
  1 4314 2.49087773E+01 5.16234501E-03 2.48594440E+01
  1 4324 2.49026350E+01 5.17153250E-03 2.48533017E+01
  1 4327 2.48939485E+01 5.18116382E-03 2.48446152E+01
  1 4325 2.48878063E+01 5.18116382E-03 2.48384730E+01
  1 4330 2.48791198E+01 5.19125175E-03 2.48297865E+01
  1 4334 2.48704333E+01 5.20180839E-03 2.48211000E+01
  1 4331 2.48642910E+01 5.20180839E-03 2.48149577E+01
  1 4339 2.48556046E+01 5.21284514E-03 2.48062713E+01
  1 4340 2.48494623E+01 5.22437245E-03 2.48001290E+01
  1 4342 2.48433200E+01 5.22437245E-03 2.47939867E+01
  1 4345 2.48371778E+01 5.23639973E-03 2.47878445E+01
  1 4636 2.48284913E+01 5.24893522E-03 2.47791580E+01
  1 4346 2.48223490E+01 5.24893522E-03 2.47730157E+01
  1 4643 2.48136625E+01 5.26198576E-03 2.47643292E+01
  1 4644 2.48075203E+01 5.27555669E-03 2.47581870E+01
  1 4646 2.48013780E+01 5.27555669E-03 2.47520447E+01
  1 4649 2.47952357E+01 5.28965167E-03 2.47459024E+01
  1 4652 2.47890935E+01 5.28965167E-03 2.47397602E+01
  1 4653 2.47829512E+01 5.30427253E-03 2.47336179E+01
  1 4658 2.47768089E+01 5.31941910E-03 2.47274756E+01
  1 4660 2.47706667E+01 5.31941910E-03 2.47213334E+01
  1 4661 2.47645244E+01 5.33508909E-03 2.47151911E+01
  1 4664 2.47583821E+01 5.35127790E-03 2.47090488E+01
  1 4671 2.47522399E+01 5.35127790E-03 2.47029066E+01
  1 4674 2.47435534E+01 5.36797857E-03 2.46942201E+01
  1 4672 2.47374111E+01 5.36797857E-03 2.46880778E+01
  1 4684 2.47287246E+01 5.38518161E-03 2.46793913E+01
  1 4688 2.47200382E+01 5.40287494E-03 2.46707049E+01
  1 4685 2.47138959E+01 5.40287494E-03 2.46645626E+01
  1 4691 2.47052094E+01 5.42104381E-03 2.46558761E+01
  1 4693 2.46990671E+01 5.42104381E-03 2.46497338E+01
  1 4694 2.46929249E+01 5.43967076E-03 2.46435916E+01
  1 4699 2.46867826E+01 5.45873562E-03 2.46374493E+01
  1 4974 2.46806403E+01 5.45873562E-03 2.46313070E+01
  1 4977 2.46719539E+01 5.47821550E-03 2.46226206E+01
  1 4975 2.46658116E+01 5.47821550E-03 2.46164783E+01
  1 4980 2.46571251E+01 5.49808485E-03 2.46077918E+01
  1 4984 2.46484386E+01 5.51831555E-03 2.45991053E+01
  1 4981 2.46422964E+01 5.51831555E-03 2.45929631E+01
  1 4994 2.46336099E+01 5.53887700E-03 2.45842766E+01
  1 4996 2.46274676E+01 5.53887700E-03 2.45781343E+01
  1 4997 2.46213253E+01 5.55973630E-03 2.45719920E+01
  1 5000 2.46151831E+01 5.58085838E-03 2.45658498E+01
  1 5007 2.46090408E+01 5.58085838E-03 2.45597075E+01
  1 5010 2.46003543E+01 5.60220629E-03 2.45510210E+01
  1 5008 2.45942121E+01 5.60220629E-03 2.45448788E+01
  1 5015 2.45855256E+01 5.62374135E-03 2.45361923E+01
  1 5016 2.45793833E+01 5.64542349E-03 2.45300500E+01
  1 5019 2.45732410E+01 5.64542349E-03 2.45239077E+01
  1 5024 2.45645546E+01 5.66721151E-03 2.45152213E+01
  1 5022 2.45584123E+01 5.66721151E-03 2.45090790E+01
  1 5294 2.45446778E+01 5.68906339E-03 2.44953445E+01
  1 5025 2.45385355E+01 5.68906339E-03 2.44892022E+01
  1 5301 2.45298490E+01 5.71093661E-03 2.44805157E+01
  1 5302 2.45237068E+01 5.73278849E-03 2.44743735E+01
  1 5304 2.45175645E+01 5.73278849E-03 2.44682312E+01
  1 5307 2.45114222E+01 5.75457651E-03 2.44620889E+01
  1 5310 2.45052800E+01 5.75457651E-03 2.44559467E+01
  1 5313 2.44965935E+01 5.77625865E-03 2.44472602E+01
  1 5311 2.44904512E+01 5.77625865E-03 2.44411179E+01
  1 5325 2.44767167E+01 5.79779371E-03 2.44273834E+01
  1 5318 2.44705744E+01 5.79779371E-03 2.44212411E+01
  1 5326 2.44618879E+01 5.81914162E-03 2.44125546E+01
  1 5331 2.44532015E+01 5.84026370E-03 2.44038682E+01
  1 5329 2.44470592E+01 5.84026370E-03 2.43977259E+01
  1 5335 2.44333247E+01 5.86112300E-03 2.43839914E+01
  1 5332 2.44271824E+01 5.86112300E-03 2.43778491E+01
  1 5342 2.44184959E+01 5.88168445E-03 2.43691626E+01
  1 5344 2.44123536E+01 5.88168445E-03 2.43630203E+01
  1 5345 2.44062114E+01 5.90191515E-03 2.43568781E+01
  1 5614 2.44000691E+01 5.90191515E-03 2.43507358E+01
  1 5617 2.43939268E+01 5.92178450E-03 2.43445935E+01
  1 5618 2.43877846E+01 5.94126438E-03 2.43384513E+01
  1 5620 2.43816423E+01 5.94126438E-03 2.43323090E+01
  1 5628 2.43729558E+01 5.96032924E-03 2.43236225E+01
  1 5625 2.43668136E+01 5.96032924E-03 2.43174803E+01
  1 5631 2.43530790E+01 5.97895619E-03 2.43037457E+01
  1 5629 2.43469368E+01 5.97895619E-03 2.42976035E+01
  1 5638 2.43332022E+01 5.99712506E-03 2.42838689E+01
  1 5634 2.43270600E+01 5.99712506E-03 2.42777267E+01
  1 5641 2.43133254E+01 6.01481839E-03 2.42639921E+01
  1 5639 2.43071832E+01 6.01481839E-03 2.42578499E+01
  1 5651 2.42984967E+01 6.03202143E-03 2.42491634E+01
  1 5652 2.42923544E+01 6.04872210E-03 2.42430211E+01
  1 5655 2.42862121E+01 6.04872210E-03 2.42368788E+01
  1 5658 2.42800699E+01 6.06491091E-03 2.42307366E+01
  1 5660 2.42739276E+01 6.06491091E-03 2.42245943E+01
  1 5661 2.42677853E+01 6.08058090E-03 2.42184520E+01
  1 5924 2.42616431E+01 6.08058090E-03 2.42123098E+01
  1 5929 2.42555008E+01 6.09572747E-03 2.42061675E+01
  1 5931 2.42493585E+01 6.09572747E-03 2.42000252E+01
  1 5932 2.42432163E+01 6.11034833E-03 2.41938830E+01
  1 5935 2.42370740E+01 6.11034833E-03 2.41877407E+01
  1 5938 2.42309317E+01 6.12444331E-03 2.41815984E+01
  1 5940 2.42247895E+01 6.12444331E-03 2.41754562E+01
  1 5941 2.42186472E+01 6.13801424E-03 2.41693139E+01
  1 5945 2.42125049E+01 6.13801424E-03 2.41631716E+01
  1 5955 2.42063627E+01 6.15106478E-03 2.41570294E+01
  1 5956 2.42002204E+01 6.16360027E-03 2.41508871E+01
  1 5958 2.41940781E+01 6.16360027E-03 2.41447448E+01
  1 5961 2.41879359E+01 6.17562755E-03 2.41386026E+01
  1 5964 2.41817936E+01 6.17562755E-03 2.41324603E+01
  1 5965 2.41756513E+01 6.18715486E-03 2.41263180E+01
  1 5967 2.41695091E+01 6.18715486E-03 2.41201758E+01
  1 6235 2.41608226E+01 6.19819161E-03 2.41114893E+01
  1 5972 2.41546803E+01 6.19819161E-03 2.41053470E+01
  1 6236 2.41459938E+01 6.20874825E-03 2.40966605E+01
  1 6238 2.41398516E+01 6.20874825E-03 2.40905183E+01
  1 6241 2.41337093E+01 6.21883618E-03 2.40843760E+01
  1 6244 2.41275670E+01 6.21883618E-03 2.40782337E+01
  1 6247 2.41188805E+01 6.22846750E-03 2.40695472E+01
  1 6245 2.41127383E+01 6.22846750E-03 2.40634050E+01
  1 6261 2.40990037E+01 6.23765499E-03 2.40496704E+01
  1 6257 2.40928615E+01 6.23765499E-03 2.40435282E+01
  1 6262 2.40841750E+01 6.24641192E-03 2.40348417E+01
  1 6264 2.40780327E+01 6.24641192E-03 2.40286994E+01
  1 6267 2.40718905E+01 6.25475192E-03 2.40225572E+01
  1 6270 2.40657482E+01 6.25475192E-03 2.40164149E+01
  1 6271 2.40596059E+01 6.26268895E-03 2.40102726E+01
  1 6278 2.40509194E+01 6.27023711E-03 2.40015861E+01
  1 6276 2.40447772E+01 6.27023711E-03 2.39954439E+01
  1 6279 2.40360907E+01 6.27741062E-03 2.39867574E+01
  1 6533 2.40299484E+01 6.27741062E-03 2.39806151E+01
  1 6538 2.40212620E+01 6.28422372E-03 2.39719287E+01
  1 6536 2.40151197E+01 6.28422372E-03 2.39657864E+01
  1 6539 2.40064332E+01 6.29069057E-03 2.39570999E+01
  1 6542 2.40002909E+01 6.29069057E-03 2.39509576E+01
  1 6552 2.39941487E+01 6.29682522E-03 2.39448154E+01
  1 6554 2.39880064E+01 6.29682522E-03 2.39386731E+01
  1 6555 2.39818641E+01 6.30264156E-03 2.39325308E+01
  1 6559 2.39757219E+01 6.30264156E-03 2.39263886E+01
  1 6562 2.39695796E+01 6.30815323E-03 2.39202463E+01
  1 6564 2.39634373E+01 6.30815323E-03 2.39141040E+01
  1 6568 2.39547509E+01 6.31337362E-03 2.39054176E+01
  1 6565 2.39486086E+01 6.31337362E-03 2.38992753E+01
  1 6573 2.39399221E+01 6.31831582E-03 2.38905888E+01
  1 6575 2.39337798E+01 6.31831582E-03 2.38844465E+01
  1 6797 2.39250934E+01 6.32299260E-03 2.38757601E+01
  1 6576 2.39189511E+01 6.32299260E-03 2.38696178E+01
  1 6800 2.39102646E+01 6.32741635E-03 2.38609313E+01
  1 6802 2.39041223E+01 6.32741635E-03 2.38547890E+01
  1 6803 2.38979801E+01 6.33159911E-03 2.38486468E+01
  1 6806 2.38918378E+01 6.33159911E-03 2.38425045E+01
  1 6816 2.38856955E+01 6.33555254E-03 2.38363622E+01
  1 6818 2.38795533E+01 6.33555254E-03 2.38302200E+01
  1 6819 2.38734110E+01 6.33928788E-03 2.38240777E+01
  1 6823 2.38672687E+01 6.33928788E-03 2.38179354E+01
  1 6826 2.38611265E+01 6.34281600E-03 2.38117932E+01
  1 6828 2.38549842E+01 6.34281600E-03 2.38056509E+01
  1 6829 2.38488419E+01 6.34614733E-03 2.37995086E+01
  1 6832 2.38426997E+01 6.34614733E-03 2.37933664E+01
  1 6837 2.38365574E+01 6.34929192E-03 2.37872241E+01
  1 6839 2.38304151E+01 6.34929192E-03 2.37810818E+01
  1 6840 2.38242729E+01 6.35225940E-03 2.37749396E+01
  1 7052 2.38181306E+01 6.35225940E-03 2.37687973E+01
  1 7057 2.38094441E+01 6.35505901E-03 2.37601108E+01
  1 7055 2.38033018E+01 6.35505901E-03 2.37539685E+01
  1 7058 2.37946154E+01 6.35769958E-03 2.37452821E+01
  1 7061 2.37884731E+01 6.35769958E-03 2.37391398E+01
  1 7071 2.37823308E+01 6.36018955E-03 2.37329975E+01
  1 7073 2.37761886E+01 6.36018955E-03 2.37268553E+01
  1 7074 2.37700463E+01 6.36253700E-03 2.37207130E+01
  1 7078 2.37639040E+01 6.36253700E-03 2.37145707E+01
  1 7081 2.37577618E+01 6.36474962E-03 2.37084285E+01
  1 7083 2.37516195E+01 6.36474962E-03 2.37022862E+01
  1 7087 2.37429330E+01 6.36683474E-03 2.36935997E+01
  1 7084 2.37367907E+01 6.36683474E-03 2.36874574E+01
  1 7092 2.37281043E+01 6.36879934E-03 2.36787710E+01
  1 7094 2.37219620E+01 6.36879934E-03 2.36726287E+01
  1 7095 2.37158197E+01 6.37065006E-03 2.36664864E+01
  1 7307 2.37096775E+01 6.37065006E-03 2.36603442E+01
  1 7310 2.37035352E+01 6.37239322E-03 2.36542019E+01
  1 7312 2.36973929E+01 6.37239322E-03 2.36480596E+01
  1 7313 2.36912507E+01 6.37403481E-03 2.36419174E+01
  1 7316 2.36851084E+01 6.37403481E-03 2.36357751E+01
  1 7326 2.36789661E+01 6.37558052E-03 2.36296328E+01
  1 7329 2.36702796E+01 6.37703575E-03 2.36209463E+01
  1 7327 2.36641374E+01 6.37703575E-03 2.36148041E+01
  1 7332 2.36554509E+01 6.37840563E-03 2.36061176E+01
  1 7339 2.36493086E+01 6.37840563E-03 2.35999753E+01
  1 7340 2.36431664E+01 6.37969499E-03 2.35938331E+01
  1 7342 2.36370241E+01 6.37969499E-03 2.35876908E+01
  1 7347 2.36308818E+01 6.38090843E-03 2.35815485E+01
  1 7350 2.36247396E+01 6.38090843E-03 2.35754063E+01
  1 7351 2.36185973E+01 6.38205030E-03 2.35692640E+01
  1 7353 2.36124550E+01 6.38205030E-03 2.35631217E+01
  1 7592 2.36037685E+01 6.38312471E-03 2.35544352E+01
  1 7356 2.35976263E+01 6.38312471E-03 2.35482930E+01
  1 7593 2.35889398E+01 6.38413555E-03 2.35396065E+01
  1 7595 2.35827975E+01 6.38413555E-03 2.35334642E+01
  1 7602 2.35766553E+01 6.38508648E-03 2.35273220E+01
  1 7605 2.35705130E+01 6.38508648E-03 2.35211797E+01
  1 7606 2.35643707E+01 6.38598100E-03 2.35150374E+01
  1 7608 2.35582285E+01 6.38598100E-03 2.35088952E+01
  1 7611 2.35520862E+01 6.38682237E-03 2.35027529E+01
  1 7618 2.35459439E+01 6.38682237E-03 2.34966106E+01
  1 7621 2.35372574E+01 6.38761370E-03 2.34879241E+01
  1 7619 2.35311152E+01 6.38761370E-03 2.34817819E+01
  1 7626 2.35224287E+01 6.38835791E-03 2.34730954E+01
  1 7629 2.35162864E+01 6.38835791E-03 2.34669531E+01
  1 7630 2.35101442E+01 6.38905776E-03 2.34608109E+01
  1 7632 2.35040019E+01 6.38905776E-03 2.34546686E+01
  1 7635 2.34978596E+01 6.38971584E-03 2.34485263E+01
  1 7868 2.34917173E+01 6.38971584E-03 2.34423840E+01
  1 7871 2.34830309E+01 6.39033463E-03 2.34336976E+01
  1 7869 2.34768886E+01 6.39033463E-03 2.34275553E+01
  1 7881 2.34631541E+01 6.39091642E-03 2.34138208E+01
  1 7878 2.34570118E+01 6.39091642E-03 2.34076785E+01
  1 7882 2.34483253E+01 6.39146341E-03 2.33989920E+01
  1 7884 2.34421831E+01 6.39146341E-03 2.33928498E+01
  1 7887 2.34360408E+01 6.39197765E-03 2.33867075E+01
  1 7894 2.34298985E+01 6.39197765E-03 2.33805652E+01
  1 7895 2.34237563E+01 6.39246109E-03 2.33744230E+01
  1 7897 2.34176140E+01 6.39246109E-03 2.33682807E+01
  1 7905 2.34089275E+01 6.39291554E-03 2.33595942E+01
  1 7902 2.34027852E+01 6.39291554E-03 2.33534519E+01
  1 7908 2.33890507E+01 6.39334272E-03 2.33397174E+01
  1 7906 2.33829084E+01 6.39334272E-03 2.33335751E+01
  1 7911 2.33742220E+01 6.39374426E-03 2.33248887E+01
  1 8120 2.33680797E+01 6.39374426E-03 2.33187464E+01
  1 8121 2.33619374E+01 6.39412169E-03 2.33126041E+01
  1 8123 2.33557952E+01 6.39412169E-03 2.33064619E+01
  1 8130 2.33496529E+01 6.39447643E-03 2.33003196E+01
  1 8133 2.33435106E+01 6.39447643E-03 2.32941773E+01
  1 8134 2.33373684E+01 6.39480985E-03 2.32880351E+01
  1 8136 2.33312261E+01 6.39480985E-03 2.32818928E+01
  1 8139 2.33250838E+01 6.39512321E-03 2.32757505E+01
  1 8146 2.33189416E+01 6.39512321E-03 2.32696083E+01
  1 8147 2.33127993E+01 6.39541771E-03 2.32634660E+01
  1 8149 2.33066570E+01 6.39541771E-03 2.32573237E+01
  1 8157 2.32979705E+01 6.39569448E-03 2.32486372E+01
  1 8154 2.32918283E+01 6.39569448E-03 2.32424950E+01
  1 8158 2.32831418E+01 6.39595459E-03 2.32338085E+01
  1 8161 2.32769995E+01 6.39619902E-03 2.32276662E+01
  1 8163 2.32708573E+01 6.39619902E-03 2.32215240E+01
  1 8164 2.32647150E+01 6.39642872E-03 2.32153817E+01
  1 8373 2.32585727E+01 6.39642872E-03 2.32092394E+01
  1 8380 2.32524304E+01 6.39664458E-03 2.32030971E+01
  1 8382 2.32462882E+01 6.39664458E-03 2.31969549E+01
  1 8383 2.32401459E+01 6.39684741E-03 2.31908126E+01
  1 8386 2.32340036E+01 6.39684741E-03 2.31846703E+01
  1 8389 2.32278614E+01 6.39703802E-03 2.31785281E+01
  1 8391 2.32217191E+01 6.39703802E-03 2.31723858E+01
  1 8399 2.32130326E+01 6.39721712E-03 2.31636993E+01
  1 8392 2.32068904E+01 6.39721712E-03 2.31575571E+01
  1 8406 2.31931558E+01 6.39738541E-03 2.31438225E+01
  1 8404 2.31870136E+01 6.39738541E-03 2.31376803E+01
  1 8407 2.31783271E+01 6.39754354E-03 2.31289938E+01
  1 8410 2.31721848E+01 6.39754354E-03 2.31228515E+01
  1 8413 2.31660426E+01 6.39769212E-03 2.31167093E+01
  1 8415 2.31599003E+01 6.39769212E-03 2.31105670E+01
  1 8416 2.31537580E+01 6.39783173E-03 2.31044247E+01
  1 8625 2.31476157E+01 6.39783173E-03 2.30982824E+01
  1 8632 2.31414735E+01 6.39796291E-03 2.30921402E+01
  1 8634 2.31353312E+01 6.39796291E-03 2.30859979E+01
  1 8635 2.31291889E+01 6.39808616E-03 2.30798556E+01
  1 8638 2.31230467E+01 6.39820197E-03 2.30737134E+01
  1 8641 2.31169044E+01 6.39820197E-03 2.30675711E+01
  1 8642 2.31107621E+01 6.39831077E-03 2.30614288E+01
  1 8644 2.31046199E+01 6.39831077E-03 2.30552866E+01
  1 8656 2.30959334E+01 6.39841300E-03 2.30466001E+01
  1 8649 2.30897911E+01 6.39841300E-03 2.30404578E+01
  1 8657 2.30811046E+01 6.39850905E-03 2.30317713E+01
  1 8659 2.30749624E+01 6.39850905E-03 2.30256291E+01
  1 8662 2.30688201E+01 6.39859929E-03 2.30194868E+01
  1 8665 2.30626778E+01 6.39859929E-03 2.30133445E+01
  1 8666 2.30565356E+01 6.39868408E-03 2.30072023E+01
  1 8668 2.30503933E+01 6.39868408E-03 2.30010600E+01
  1 8675 2.30442510E+01 6.39876374E-03 2.29949177E+01
  1 8884 2.30381088E+01 6.39876374E-03 2.29887755E+01
  1 8885 2.30319665E+01 6.39883858E-03 2.29826332E+01
  1 8888 2.30258242E+01 6.39890889E-03 2.29764909E+01
  1 8890 2.30196820E+01 6.39890889E-03 2.29703487E+01
  1 8894 2.30109955E+01 6.39897495E-03 2.29616622E+01
  1 8891 2.30048532E+01 6.39897495E-03 2.29555199E+01
  1 8899 2.29961667E+01 6.39903701E-03 2.29468334E+01
  1 8901 2.29900245E+01 6.39903701E-03 2.29406912E+01
  1 8902 2.29838822E+01 6.39909532E-03 2.29345489E+01
  1 8909 2.29777399E+01 6.39909532E-03 2.29284066E+01
  1 8912 2.29715977E+01 6.39915009E-03 2.29222644E+01
  1 8914 2.29654554E+01 6.39915009E-03 2.29161221E+01
  1 8915 2.29593131E+01 6.39920156E-03 2.29099798E+01
  1 8918 2.29531709E+01 6.39920156E-03 2.29038376E+01
  1 8925 2.29470286E+01 6.39924991E-03 2.28976953E+01
  1 8926 2.29408863E+01 6.39929533E-03 2.28915530E+01
  1 8928 2.29347441E+01 6.39929533E-03 2.28854108E+01
  1 8931 2.29286018E+01 6.39933800E-03 2.28792685E+01
  1 9146 2.29224595E+01 6.39933800E-03 2.28731262E+01
  1 9149 2.29137730E+01 6.39937809E-03 2.28644397E+01
  1 9147 2.29076308E+01 6.39937809E-03 2.28582975E+01
  1 9154 2.28989443E+01 6.39941576E-03 2.28496110E+01
  1 9157 2.28928020E+01 6.39941576E-03 2.28434687E+01
  1 9158 2.28866598E+01 6.39945114E-03 2.28373265E+01
  1 9161 2.28805175E+01 6.39948438E-03 2.28311842E+01
  1 9163 2.28743752E+01 6.39948438E-03 2.28250419E+01
  1 9164 2.28682330E+01 6.39951561E-03 2.28188997E+01
  1 9168 2.28620907E+01 6.39951561E-03 2.28127574E+01
  1 9178 2.28559484E+01 6.39954495E-03 2.28066151E+01
  1 9180 2.28498062E+01 6.39954495E-03 2.28004729E+01
  1 9181 2.28436639E+01 6.39957251E-03 2.27943306E+01
  1 9184 2.28375216E+01 6.39957251E-03 2.27881883E+01
  1 9187 2.28313793E+01 6.39959840E-03 2.27820460E+01
  1 9190 2.28226929E+01 6.39962273E-03 2.27733596E+01
  1 9188 2.28165506E+01 6.39962273E-03 2.27672173E+01
  1 9195 2.28078641E+01 6.39964558E-03 2.27585308E+01
  1 9407 2.28017219E+01 6.39964558E-03 2.27523886E+01
  1 9408 2.27955796E+01 6.39966705E-03 2.27462463E+01
  1 9410 2.27894373E+01 6.39966705E-03 2.27401040E+01
  1 9413 2.27832950E+01 6.39968722E-03 2.27339617E+01
  1 9414 2.27771528E+01 6.39970616E-03 2.27278195E+01
  1 9417 2.27710105E+01 6.39970616E-03 2.27216772E+01