# File generated by Flopy version 3.6.0 on 03/26/2025 at 15:04:15.
BEGIN options
END options

BEGIN dimensions
  MAXBOUND  29069
END dimensions

BEGIN period  1
  1 1 1.31861029E-08
  1 2 1.29321934E-08
  1 3 1.31528509E-08
  1 4 1.36690165E-08
  1 5 1.40688447E-08
  1 6 1.45497865E-08
  1 7 1.46954131E-08
  1 8 1.43210566E-08
  1 9 1.39648192E-08
  1 10 1.32614239E-08
  1 11 1.23618192E-08
  1 12 1.17537711E-08
  1 13 1.14598898E-08
  1 14 1.09300373E-08
  1 15 1.03826301E-08
  1 16 9.89391129E-09
  1 17 9.25977200E-09
  1 18 9.05578521E-09
  1 19 9.07492307E-09
  1 20 9.44138302E-09
  1 21 1.02763128E-08
  1 22 1.08178909E-08
  1 23 1.10797016E-08
  1 24 1.19298761E-08
  1 25 1.30664612E-08
  1 26 1.37301841E-08
  1 27 1.38303090E-08
  1 28 1.38958034E-08
  1 29 1.35505420E-08
  1 30 1.30828122E-08
  1 31 1.28506056E-08
  1 32 1.25488678E-08
  1 33 1.27596879E-08
  1 34 1.30228703E-08
  1 35 1.37121524E-08
  1 36 1.44869922E-08
  1 37 1.54199704E-08
  1 38 1.61589029E-08
  1 39 1.71195711E-08
  1 40 1.80281719E-08
  1 41 1.89565503E-08
  1 42 2.00586527E-08
  1 43 2.07910044E-08
  1 44 2.11704576E-08
  1 45 2.15617826E-08
  1 46 2.18304944E-08
  1 47 2.20517698E-08
  1 48 2.20441152E-08
  1 49 2.17669739E-08
  1 50 2.16321061E-08
  1 51 2.17537727E-08
  1 52 2.16016783E-08
  1 53 2.16213449E-08
  1 54 2.20580910E-08
  1 55 2.26182659E-08
  1 56 2.30072008E-08
  1 57 2.33697741E-08
  1 58 2.40637975E-08
  1 59 2.47362071E-08
  1 60 2.56019131E-08
  1 61 2.63700404E-08
  1 62 2.70810798E-08
  1 63 2.75150129E-08
  1 64 2.79544658E-08
  1 65 2.80458610E-08
  1 66 2.80798276E-08
  1 67 2.81027715E-08
  1 68 2.77053047E-08
  1 69 2.69875485E-08
  1 70 2.57473235E-08
  1 71 2.45012054E-08
  1 72 2.27932392E-08
  1 73 2.07867756E-08
  1 74 1.92655633E-08
  1 75 1.79282999E-08
  1 76 1.67873870E-08
  1 77 1.57764105E-08
  1 78 1.47764438E-08
  1 79 1.36657802E-08
  1 80 1.24654774E-08
  1 81 1.15846885E-08
  1 82 1.05673771E-08
  1 83 9.46698265E-09
  1 84 8.84087446E-09
  1 85 8.30793740E-09
  1 86 8.10616180E-09
  1 87 8.17998232E-09
  1 88 8.70653416E-09
  1 89 9.22419749E-09
  1 90 9.40009242E-09
  1 91 9.41803872E-09
  1 92 9.19699985E-09
  1 93 9.36261075E-09
  1 94 9.66608387E-09
  1 95 1.03842082E-08
  1 96 1.11389003E-08
  1 97 1.14629926E-08
  1 98 1.17684465E-08
  1 99 1.23652914E-08
  1 100 1.28376521E-08
  1 101 1.32495479E-08
  1 102 1.36961012E-08
  1 103 1.39598290E-08
  1 104 1.43273359E-08
  1 105 1.47396981E-08
  1 106 1.54727974E-08
  1 107 1.62370235E-08
  1 108 1.72215324E-08
  1 109 1.82795641E-08
  1 110 1.88660468E-08
  1 111 1.94378990E-08
  1 112 1.99935944E-08
  1 113 2.09165522E-08
  1 114 2.18944514E-08
  1 115 2.25729024E-08
  1 116 2.34818037E-08
  1 117 2.41098464E-08
  1 118 2.44889390E-08
  1 119 2.44521362E-08
  1 120 2.43731814E-08
  1 121 2.37722068E-08
  1 122 2.29878755E-08
  1 123 2.21272968E-08
  1 124 2.15351420E-08
  1 125 2.06820679E-08
  1 126 2.02010601E-08
  1 127 1.98832929E-08
  1 128 1.94784852E-08
  1 129 1.94219394E-08
  1 130 1.93532430E-08
  1 131 1.94457418E-08
  1 132 1.91392359E-08
  1 133 1.82775150E-08
  1 134 1.78538952E-08
  1 135 1.71649308E-08
  1 136 1.64849671E-08
  1 137 1.61832327E-08
  1 138 1.58149094E-08
  1 139 1.56603066E-08
  1 140 1.56261380E-08
  1 141 1.66288199E-08
  1 142 1.77023353E-08
  1 143 1.84748333E-08
  1 144 1.91661975E-08
  1 145 1.94647563E-08
  1 146 2.00353065E-08
  1 147 2.03824968E-08
  1 148 2.05743988E-08
  1 149 2.03957564E-08
  1 150 1.98905088E-08
  1 151 1.89663395E-08
  1 152 1.78959174E-08
  1 153 1.67547022E-08
  1 154 1.56644838E-08
  1 155 1.49226639E-08
  1 156 1.44611818E-08
  1 157 1.41234369E-08
  1 158 1.39387483E-08
  1 159 1.35502947E-08
  1 160 1.29222968E-08
  1 161 1.20260645E-08
  1 162 1.12450964E-08
  1 163 1.00719708E-08
  1 164 9.39252120E-09
  1 165 9.02095479E-09
  1 166 8.72892247E-09
  1 167 8.40344400E-09
  1 168 8.14992303E-09
  1 169 8.08291033E-09
  1 170 8.53892440E-09
  1 171 9.58504625E-09
  1 172 1.06258217E-08
  1 173 1.14337608E-08
  1 174 1.19209584E-08
  1 175 1.23920752E-08
  1 176 1.29559310E-08
  1 177 1.36183322E-08
  1 178 1.42077126E-08
  1 179 1.41792151E-08
  1 180 1.42569753E-08
  1 181 1.47547392E-08
  1 182 1.55781134E-08
  1 183 1.64340121E-08
  1 184 1.68985434E-08
  1 185 1.70661501E-08
  1 186 1.69559773E-08
  1 187 1.68918741E-08
  1 188 1.70985088E-08
  1 189 1.78773630E-08
  1 190 1.87458230E-08
  1 191 1.97178882E-08
  1 192 2.05944851E-08
  1 193 2.12846915E-08
  1 194 2.16214276E-08
  1 195 2.15763004E-08
  1 196 2.19534051E-08
  1 197 2.21300967E-08
  1 198 2.22289637E-08
  1 199 2.24552093E-08
  1 200 2.29694920E-08
  1 201 1.33300698E-08
  1 202 1.30881616E-08
  1 203 1.30906479E-08
  1 204 1.36586925E-08
  1 205 1.41000993E-08
  1 206 1.45168497E-08
  1 207 1.48968776E-08
  1 208 1.47186421E-08
  1 209 1.43023466E-08
  1 210 1.37097035E-08
  1 211 1.28096223E-08
  1 212 1.20959903E-08
  1 213 1.16034722E-08
  1 214 1.12267144E-08
  1 215 1.06788026E-08
  1 216 1.01992779E-08
  1 217 9.65973581E-09
  1 218 9.33165124E-09
  1 219 9.27917044E-09
  1 220 9.47323606E-09
  1 221 1.02160245E-08
  1 222 1.10648595E-08
  1 223 1.13647656E-08
  1 224 1.19744702E-08
  1 225 1.30713624E-08
  1 226 1.40123954E-08
  1 227 1.41984317E-08
  1 228 1.42298066E-08
  1 229 1.40409219E-08
  1 230 1.35092741E-08
  1 231 1.32094858E-08
  1 232 1.28946453E-08
  1 233 1.29746517E-08
  1 234 1.31290796E-08
  1 235 1.34951411E-08
  1 236 1.43424762E-08
  1 237 1.52683016E-08
  1 238 1.59328228E-08
  1 239 1.68726965E-08
  1 240 1.77603191E-08
  1 241 1.87009775E-08
  1 242 1.98002738E-08
  1 243 2.06850408E-08
  1 244 2.11577251E-08
  1 245 2.13876818E-08
  1 246 2.17635640E-08
  1 247 2.20975514E-08
  1 248 2.22219542E-08
  1 249 2.19827678E-08
  1 250 2.16646606E-08
  1 251 2.18123941E-08
  1 252 2.17656172E-08
  1 253 2.15977173E-08
  1 254 2.18629764E-08
  1 255 2.23797167E-08
  1 256 2.28242520E-08
  1 257 2.31760994E-08
  1 258 2.38490861E-08
  1 259 2.45047978E-08
  1 260 2.54358046E-08
  1 261 2.62828872E-08
  1 262 2.69359924E-08
  1 263 2.75120371E-08
  1 264 2.79063017E-08
  1 265 2.81458474E-08
  1 266 2.81488286E-08
  1 267 2.82098751E-08
  1 268 2.79872358E-08
  1 269 2.75260692E-08
  1 270 2.63180253E-08
  1 271 2.50132804E-08
  1 272 2.36127752E-08
  1 273 2.16098395E-08
  1 274 1.99360815E-08
  1 275 1.85485807E-08
  1 276 1.73349693E-08
  1 277 1.62285721E-08
  1 278 1.53687742E-08
  1 279 1.43362081E-08
  1 280 1.30459997E-08
  1 281 1.18972487E-08
  1 282 1.10053591E-08
  1 283 9.84941576E-09
  1 284 9.02459454E-09
  1 285 8.63189198E-09
  1 286 8.22673549E-09
  1 287 8.14181130E-09
  1 288 8.60494541E-09
  1 289 9.12251051E-09
  1 290 9.46244664E-09
  1 291 9.54570145E-09
  1 292 9.37931276E-09
  1 293 9.39333654E-09
  1 294 9.58691227E-09
  1 295 1.01175077E-08
  1 296 1.09454581E-08
  1 297 1.13774916E-08
  1 298 1.17710351E-08
  1 299 1.22943113E-08
  1 300 1.28327985E-08
  1 301 1.32716034E-08
  1 302 1.37627931E-08
  1 303 1.40167955E-08
  1 304 1.43477122E-08
  1 305 1.46584042E-08
  1 306 1.53271894E-08
  1 307 1.60750838E-08
  1 308 1.70077321E-08
  1 309 1.79772083E-08
  1 310 1.87732038E-08
  1 311 1.91888280E-08
  1 312 1.98049372E-08
  1 313 2.05360484E-08
  1 314 2.15760370E-08
  1 315 2.22357001E-08
  1 316 2.30653130E-08
  1 317 2.38683597E-08
  1 318 2.42668685E-08
  1 319 2.44600038E-08
  1 320 2.44121365E-08
  1 321 2.40139486E-08
  1 322 2.32331652E-08
  1 323 2.23357903E-08
  1 324 2.15362974E-08
  1 325 2.09016665E-08
  1 326 2.01935702E-08
  1 327 1.97702455E-08
  1 328 1.93583065E-08
  1 329 1.92290901E-08
  1 330 1.91522342E-08
  1 331 1.92268816E-08
  1 332 1.91233831E-08
  1 333 1.82854344E-08
  1 334 1.78099947E-08
  1 335 1.71808260E-08
  1 336 1.63458631E-08
  1 337 1.59842730E-08
  1 338 1.56821737E-08
  1 339 1.55067846E-08
  1 340 1.53037950E-08
  1 341 1.59858428E-08
  1 342 1.70910077E-08
  1 343 1.80073044E-08
  1 344 1.87748971E-08
  1 345 1.93103312E-08
  1 346 1.97829563E-08
  1 347 2.02878688E-08
  1 348 2.04140250E-08
  1 349 2.04328039E-08
  1 350 1.99701648E-08
  1 351 1.93802009E-08
  1 352 1.81811704E-08
  1 353 1.70954042E-08
  1 354 1.58936849E-08
  1 355 1.50645076E-08
  1 356 1.45103814E-08
  1 357 1.39249509E-08
  1 358 1.37615826E-08
  1 359 1.34801930E-08
  1 360 1.30224931E-08
  1 361 1.22324267E-08
  1 362 1.13768261E-08
  1 363 1.04461505E-08
  1 364 9.45581534E-09
  1 365 8.96647188E-09
  1 366 8.63405673E-09
  1 367 8.44583997E-09
  1 368 8.18061333E-09
  1 369 8.06528768E-09
  1 370 8.30961234E-09
  1 371 9.20102668E-09
  1 372 1.02433699E-08
  1 373 1.11981188E-08
  1 374 1.17936199E-08
  1 375 1.21769270E-08
  1 376 1.26467627E-08
  1 377 1.33279230E-08
  1 378 1.38763486E-08
  1 379 1.41439788E-08
  1 380 1.41298315E-08
  1 381 1.44983435E-08
  1 382 1.52506353E-08
  1 383 1.61073301E-08
  1 384 1.66737333E-08
  1 385 1.68886964E-08
  1 386 1.69604580E-08
  1 387 1.67433830E-08
  1 388 1.68405162E-08
  1 389 1.74548355E-08
  1 390 1.84542045E-08
  1 391 1.92605135E-08
  1 392 2.03031842E-08
  1 393 2.10590140E-08
  1 394 2.15052232E-08
  1 395 2.15008045E-08
  1 396 2.17116637E-08
  1 397 2.21161380E-08
  1 398 2.21001229E-08
  1 399 2.23603395E-08
  1 400 2.27826672E-08
  1 401 1.34474629E-08
  1 402 1.32577804E-08
  1 403 1.31649917E-08
  1 404 1.36990270E-08
  1 405 1.40567577E-08
  1 406 1.45115978E-08
  1 407 1.49464277E-08
  1 408 1.51567665E-08
  1 409 1.46492033E-08
  1 410 1.42033625E-08
  1 411 1.32989341E-08
  1 412 1.24788171E-08
  1 413 1.17778885E-08
  1 414 1.14476986E-08
  1 415 1.10324648E-08
  1 416 1.05384718E-08
  1 417 1.00268294E-08
  1 418 9.63299818E-09
  1 419 9.40200525E-09
  1 420 9.56818652E-09
  1 421 1.01735596E-08
  1 422 1.11751218E-08
  1 423 1.17307626E-08
  1 424 1.21772062E-08
  1 425 1.30067356E-08
  1 426 1.40533194E-08
  1 427 1.45547896E-08
  1 428 1.45547972E-08
  1 429 1.44544915E-08
  1 430 1.39025528E-08
  1 431 1.36277548E-08
  1 432 1.33250618E-08
  1 433 1.31316427E-08
  1 434 1.32402663E-08
  1 435 1.34135456E-08
  1 436 1.41209785E-08
  1 437 1.50780595E-08
  1 438 1.57193434E-08
  1 439 1.66079547E-08
  1 440 1.75157455E-08
  1 441 1.84403925E-08
  1 442 1.94878318E-08
  1 443 2.04318949E-08
  1 444 2.11025978E-08
  1 445 2.13365882E-08
  1 446 2.16498436E-08
  1 447 2.20215417E-08
  1 448 2.22209354E-08
  1 449 2.21726954E-08
  1 450 2.17573194E-08
  1 451 2.16999282E-08
  1 452 2.18763862E-08
  1 453 2.16239956E-08
  1 454 2.17874370E-08
  1 455 2.21788030E-08
  1 456 2.26892676E-08
  1 457 2.30086272E-08
  1 458 2.35846381E-08
  1 459 2.43515236E-08
  1 460 2.52177124E-08
  1 461 2.60634976E-08
  1 462 2.68183405E-08
  1 463 2.74960683E-08
  1 464 2.78473821E-08
  1 465 2.82125234E-08
  1 466 2.82390884E-08
  1 467 2.82739677E-08
  1 468 2.83443077E-08
  1 469 2.78239303E-08
  1 470 2.68515052E-08
  1 471 2.54996797E-08
  1 472 2.42463308E-08
  1 473 2.24664101E-08
  1 474 2.06292275E-08
  1 475 1.91306928E-08
  1 476 1.78469281E-08
  1 477 1.67754912E-08
  1 478 1.58640719E-08
  1 479 1.48970060E-08
  1 480 1.36537165E-08
  1 481 1.23816757E-08
  1 482 1.13648069E-08
  1 483 1.02253502E-08
  1 484 9.24635573E-09
  1 485 8.79531554E-09
  1 486 8.30677582E-09
  1 487 8.22355894E-09
  1 488 8.47362266E-09
  1 489 8.92609693E-09
  1 490 9.35269560E-09
  1 491 9.64537104E-09
  1 492 9.59080157E-09
  1 493 9.47239363E-09
  1 494 9.58414121E-09
  1 495 9.94682809E-09
  1 496 1.07208310E-08
  1 497 1.13160267E-08
  1 498 1.17873736E-08
  1 499 1.22398120E-08
  1 500 1.27751534E-08
  1 501 1.32726971E-08
  1 502 1.37986867E-08
  1 503 1.41476308E-08
  1 504 1.43974641E-08
  1 505 1.46718240E-08
  1 506 1.51794976E-08
  1 507 1.58843845E-08
  1 508 1.67320955E-08
  1 509 1.75844438E-08
  1 510 1.85312609E-08
  1 511 1.90396884E-08
  1 512 1.96485902E-08
  1 513 2.02248580E-08
  1 514 2.12011842E-08
  1 515 2.19913475E-08
  1 516 2.26245866E-08
  1 517 2.35481278E-08
  1 518 2.40397539E-08
  1 519 2.43609060E-08
  1 520 2.43421376E-08
  1 521 2.41696530E-08
  1 522 2.35132913E-08
  1 523 2.25227391E-08
  1 524 2.16593527E-08
  1 525 2.10034784E-08
  1 526 2.02667753E-08
  1 527 1.97198044E-08
  1 528 1.93565508E-08
  1 529 1.90699863E-08
  1 530 1.89764567E-08
  1 531 1.89923415E-08
  1 532 1.90040895E-08
  1 533 1.84155077E-08
  1 534 1.76763723E-08
  1 535 1.71923066E-08
  1 536 1.63333441E-08
  1 537 1.58179761E-08
  1 538 1.55143666E-08
  1 539 1.53256033E-08
  1 540 1.51462532E-08
  1 541 1.54151069E-08
  1 542 1.64665761E-08
  1 543 1.75092826E-08
  1 544 1.83756719E-08
  1 545 1.91070963E-08
  1 546 1.95010488E-08
  1 547 2.01199221E-08
  1 548 2.02753513E-08
  1 549 2.03979184E-08
  1 550 2.00287824E-08
  1 551 1.96425298E-08
  1 552 1.85957664E-08
  1 553 1.74617795E-08
  1 554 1.61391374E-08
  1 555 1.52064347E-08
  1 556 1.46144864E-08
  1 557 1.38845127E-08
  1 558 1.34807103E-08
  1 559 1.33575134E-08
  1 560 1.30399474E-08
  1 561 1.24609687E-08
  1 562 1.15062955E-08
  1 563 1.06779457E-08
  1 564 9.62760621E-09
  1 565 8.87891582E-09
  1 566 8.52809349E-09
  1 567 8.35668789E-09
  1 568 8.17991444E-09
  1 569 8.07625511E-09
  1 570 8.22005628E-09
  1 571 8.84917539E-09
  1 572 9.84319658E-09
  1 573 1.09009156E-08
  1 574 1.15519176E-08
  1 575 1.20981803E-08
  1 576 1.24568952E-08
  1 577 1.30348685E-08
  1 578 1.36709768E-08
  1 579 1.40456250E-08
  1 580 1.40764055E-08
  1 581 1.43780094E-08
  1 582 1.49398602E-08
  1 583 1.56882080E-08
  1 584 1.64385138E-08
  1 585 1.66911069E-08
  1 586 1.67932159E-08
  1 587 1.66236645E-08
  1 588 1.66668444E-08
  1 589 1.71185106E-08
  1 590 1.80756492E-08
  1 591 1.89260443E-08
  1 592 1.98965605E-08
  1 593 2.07064657E-08
  1 594 2.12750372E-08
  1 595 2.15126742E-08
  1 596 2.15059256E-08
  1 597 2.19495622E-08
  1 598 2.19737448E-08
  1 599 2.22967252E-08
  1 600 2.26088015E-08
  1 601 1.35111792E-08
  1 602 1.34252640E-08
  1 603 1.33489887E-08
  1 604 1.37179729E-08
  1 605 1.41107794E-08
  1 606 1.44922906E-08
  1 607 1.49553514E-08
  1 608 1.53780263E-08
  1 609 1.51398981E-08
  1 610 1.46797842E-08
  1 611 1.37888452E-08
  1 612 1.29303969E-08
  1 613 1.20930705E-08
  1 614 1.16113310E-08
  1 615 1.13830917E-08
  1 616 1.08391527E-08
  1 617 1.03794268E-08
  1 618 9.91309575E-09
  1 619 9.69163279E-09
  1 620 9.75007781E-09
  1 621 1.02103516E-08
  1 622 1.11469435E-08
  1 623 1.20441493E-08
  1 624 1.25065630E-08
  1 625 1.30999233E-08
  1 626 1.40529561E-08
  1 627 1.48024109E-08
  1 628 1.49480042E-08
  1 629 1.48130920E-08
  1 630 1.44453122E-08
  1 631 1.41103663E-08
  1 632 1.38358324E-08
  1 633 1.34251729E-08
  1 634 1.34451152E-08
  1 635 1.35593469E-08
  1 636 1.39983003E-08
  1 637 1.48079544E-08
  1 638 1.56084023E-08
  1 639 1.62992075E-08
  1 640 1.72763861E-08
  1 641 1.81882669E-08
  1 642 1.91469598E-08
  1 643 2.01798309E-08
  1 644 2.09426858E-08
  1 645 2.13579349E-08
  1 646 2.15559435E-08
  1 647 2.19320538E-08
  1 648 2.21737278E-08
  1 649 2.22920965E-08
  1 650 2.19452394E-08
  1 651 2.16569683E-08
  1 652 2.18188300E-08
  1 653 2.17044409E-08
  1 654 2.17575953E-08
  1 655 2.20445251E-08
  1 656 2.26542858E-08
  1 657 2.28196301E-08
  1 658 2.33567276E-08
  1 659 2.41893994E-08
  1 660 2.50044784E-08
  1 661 2.58325300E-08
  1 662 2.67319740E-08
  1 663 2.74299301E-08
  1 664 2.78982691E-08
  1 665 2.82026596E-08
  1 666 2.83548968E-08
  1 667 2.82851020E-08
  1 668 2.84943565E-08
  1 669 2.81205028E-08
  1 670 2.73624538E-08
  1 671 2.60478767E-08
  1 672 2.47121239E-08
  1 673 2.32777967E-08
  1 674 2.14311323E-08
  1 675 1.97535247E-08
  1 676 1.83978091E-08
  1 677 1.72577290E-08
  1 678 1.63341245E-08
  1 679 1.54802114E-08
  1 680 1.43575165E-08
  1 681 1.28818249E-08
  1 682 1.17356786E-08
  1 683 1.06445906E-08
  1 684 9.52478414E-09
  1 685 8.88742037E-09
  1 686 8.55770842E-09
  1 687 8.36500443E-09
  1 688 8.43218968E-09
  1 689 8.80758501E-09
  1 690 9.24977346E-09
  1 691 9.62033935E-09
  1 692 9.75040153E-09
  1 693 9.62417026E-09
  1 694 9.65155364E-09
  1 695 9.87978778E-09
  1 696 1.05102938E-08
  1 697 1.12360867E-08
  1 698 1.18277328E-08
  1 699 1.22490001E-08
  1 700 1.28442782E-08
  1 701 1.33424009E-08
  1 702 1.37764211E-08
  1 703 1.42356989E-08
  1 704 1.45113183E-08
  1 705 1.47063384E-08
  1 706 1.50435633E-08
  1 707 1.57508330E-08
  1 708 1.64915106E-08
  1 709 1.73647953E-08
  1 710 1.82995498E-08
  1 711 1.89506256E-08
  1 712 1.94674160E-08
  1 713 2.00469875E-08
  1 714 2.07909106E-08
  1 715 2.16896035E-08
  1 716 2.22150625E-08
  1 717 2.31693199E-08
  1 718 2.38334066E-08
  1 719 2.42055062E-08
  1 720 2.43358813E-08
  1 721 2.42046493E-08
  1 722 2.37323756E-08
  1 723 2.27703494E-08
  1 724 2.18766908E-08
  1 725 2.10526882E-08
  1 726 2.04519767E-08
  1 727 1.97354804E-08
  1 728 1.93682134E-08
  1 729 1.89374421E-08
  1 730 1.88483764E-08
  1 731 1.88204559E-08
  1 732 1.87787117E-08
  1 733 1.84762143E-08
  1 734 1.76035780E-08
  1 735 1.71888757E-08
  1 736 1.63747192E-08
  1 737 1.57049412E-08
  1 738 1.53068758E-08
  1 739 1.51049880E-08
  1 740 1.50764937E-08
  1 741 1.49482071E-08
  1 742 1.57826014E-08
  1 743 1.69851265E-08
  1 744 1.78535922E-08
  1 745 1.87109458E-08
  1 746 1.92094396E-08
  1 747 1.99063049E-08
  1 748 2.02169840E-08
  1 749 2.02865423E-08
  1 750 2.00781661E-08
  1 751 1.97575827E-08
  1 752 1.89991076E-08
  1 753 1.78517621E-08
  1 754 1.64833586E-08
  1 755 1.53765454E-08
  1 756 1.46464195E-08
  1 757 1.39613043E-08
  1 758 1.32874988E-08
  1 759 1.30566087E-08
  1 760 1.29554670E-08
  1 761 1.25813820E-08
  1 762 1.16693063E-08
  1 763 1.08029757E-08
  1 764 9.86428586E-09
  1 765 8.89691132E-09
  1 766 8.45806392E-09
  1 767 8.31250915E-09
  1 768 8.21037975E-09
  1 769 8.09409509E-09
  1 770 8.16314402E-09
  1 771 8.57666454E-09
  1 772 9.45234087E-09
  1 773 1.05072392E-08
  1 774 1.13659930E-08
  1 775 1.19445554E-08
  1 776 1.23343263E-08
  1 777 1.27096516E-08
  1 778 1.34449865E-08
  1 779 1.38489011E-08
  1 780 1.40514541E-08
  1 781 1.43416370E-08
  1 782 1.46462848E-08
  1 783 1.52779268E-08
  1 784 1.61481592E-08
  1 785 1.64576046E-08
  1 786 1.66466511E-08
  1 787 1.65527179E-08
  1 788 1.64814905E-08
  1 789 1.68719466E-08
  1 790 1.76651486E-08
  1 791 1.86796084E-08
  1 792 1.94089960E-08
  1 793 2.03698465E-08
  1 794 2.10851834E-08
  1 795 2.14208244E-08
  1 796 2.13220547E-08
  1 797 2.17367440E-08
  1 798 2.19353651E-08
  1 799 2.20450487E-08
  1 800 2.25051880E-08
  1 801 1.36963276E-08
  1 802 1.35620681E-08
  1 803 1.35356611E-08
  1 804 1.37609299E-08
  1 805 1.42080903E-08
  1 806 1.44895500E-08
  1 807 1.49685900E-08
  1 808 1.54581557E-08
  1 809 1.56002962E-08
  1 810 1.51214096E-08
  1 811 1.43742605E-08
  1 812 1.34132389E-08
  1 813 1.25400053E-08
  1 814 1.18464294E-08
  1 815 1.15742792E-08
  1 816 1.12583394E-08
  1 817 1.07594950E-08
  1 818 1.02387924E-08
  1 819 9.97559155E-09
  1 820 9.94988824E-09
  1 821 1.03011157E-08
  1 822 1.10829828E-08
  1 823 1.22060995E-08
  1 824 1.29357244E-08
  1 825 1.33334789E-08
  1 826 1.41072364E-08
  1 827 1.49683223E-08
  1 828 1.52951051E-08
  1 829 1.51791369E-08
  1 830 1.49885310E-08
  1 831 1.45177202E-08
  1 832 1.43124250E-08
  1 833 1.38809631E-08
  1 834 1.37374593E-08
  1 835 1.37276729E-08
  1 836 1.39003808E-08
  1 837 1.45801053E-08
  1 838 1.54288606E-08
  1 839 1.60400296E-08
  1 840 1.69871978E-08
  1 841 1.79580950E-08
  1 842 1.88725678E-08
  1 843 1.98991175E-08
  1 844 2.06918006E-08
  1 845 2.13907362E-08
  1 846 2.14607533E-08
  1 847 2.17998187E-08
  1 848 2.21895933E-08
  1 849 2.23531521E-08
  1 850 2.21050747E-08
  1 851 2.16725174E-08
  1 852 2.17281706E-08
  1 853 2.17652654E-08
  1 854 2.17262319E-08
  1 855 2.19241757E-08
  1 856 2.24508925E-08
  1 857 2.26924041E-08
  1 858 2.30676457E-08
  1 859 2.38554729E-08
  1 860 2.47094276E-08
  1 861 2.56215247E-08
  1 862 2.65103023E-08
  1 863 2.72351319E-08
  1 864 2.78803168E-08
  1 865 2.81571330E-08
  1 866 2.83733656E-08
  1 867 2.83605823E-08
  1 868 2.84680066E-08
  1 869 2.83176705E-08
  1 870 2.77049235E-08
  1 871 2.65723974E-08
  1 872 2.51589726E-08
  1 873 2.38766403E-08
  1 874 2.21681414E-08
  1 875 2.03655746E-08
  1 876 1.90133339E-08
  1 877 1.77371804E-08
  1 878 1.67594677E-08
  1 879 1.59994637E-08
  1 880 1.49311479E-08
  1 881 1.34547881E-08
  1 882 1.21241169E-08
  1 883 1.10137461E-08
  1 884 9.77788644E-09
  1 885 9.00445528E-09
  1 886 8.69356755E-09
  1 887 8.42806786E-09
  1 888 8.42372061E-09
  1 889 8.81002604E-09
  1 890 9.12072325E-09
  1 891 9.55688433E-09
  1 892 9.80372105E-09
  1 893 9.80933581E-09
  1 894 9.74247510E-09
  1 895 9.87844501E-09
  1 896 1.03447631E-08
  1 897 1.11628147E-08
  1 898 1.17454111E-08
  1 899 1.22966360E-08
  1 900 1.28973093E-08
  1 901 1.33605995E-08
  1 902 1.37294581E-08
  1 903 1.42372121E-08
  1 904 1.45083584E-08
  1 905 1.47090110E-08
  1 906 1.49547480E-08
  1 907 1.56380560E-08
  1 908 1.63129527E-08
  1 909 1.72445611E-08
  1 910 1.79936895E-08
  1 911 1.87372279E-08
  1 912 1.92867533E-08
  1 913 1.98927612E-08
  1 914 2.03694531E-08
  1 915 2.13402151E-08
  1 916 2.19543053E-08
  1 917 2.26763910E-08
  1 918 2.35421359E-08
  1 919 2.39915882E-08
  1 920 2.42712611E-08
  1 921 2.41529588E-08
  1 922 2.38578580E-08
  1 923 2.30512103E-08
  1 924 2.20701139E-08
  1 925 2.10564863E-08
  1 926 2.05168637E-08
  1 927 1.98274042E-08
  1 928 1.92856370E-08
  1 929 1.89521442E-08
  1 930 1.86743372E-08
  1 931 1.85693185E-08
  1 932 1.85173943E-08
  1 933 1.84146554E-08
  1 934 1.76186743E-08
  1 935 1.71142186E-08
  1 936 1.64251014E-08
  1 937 1.55472196E-08
  1 938 1.51071456E-08
  1 939 1.48863470E-08
  1 940 1.49311259E-08
  1 941 1.46867739E-08
  1 942 1.52480294E-08
  1 943 1.63070319E-08
  1 944 1.73078242E-08
  1 945 1.82990541E-08
  1 946 1.89604975E-08
  1 947 1.96147390E-08
  1 948 2.00786037E-08
  1 949 2.01908027E-08
  1 950 2.01096864E-08
  1 951 1.97972612E-08
  1 952 1.93018641E-08
  1 953 1.83091847E-08
  1 954 1.69043377E-08
  1 955 1.55358495E-08
  1 956 1.46701731E-08
  1 957 1.40578730E-08
  1 958 1.32357307E-08
  1 959 1.27839135E-08
  1 960 1.28535767E-08
  1 961 1.25574639E-08
  1 962 1.19164197E-08
  1 963 1.09886184E-08
  1 964 1.01102930E-08
  1 965 9.10045794E-09
  1 966 8.36645217E-09
  1 967 8.24211751E-09
  1 968 8.20680090E-09
  1 969 8.07112360E-09
  1 970 8.10785477E-09
  1 971 8.40168865E-09
  1 972 9.11740696E-09
  1 973 1.00980933E-08
  1 974 1.11398957E-08
  1 975 1.17102186E-08
  1 976 1.22187455E-08
  1 977 1.25111327E-08
  1 978 1.31612318E-08
  1 979 1.37083620E-08
  1 980 1.40182378E-08
  1 981 1.43158981E-08
  1 982 1.45102353E-08
  1 983 1.51220190E-08
  1 984 1.58095084E-08
  1 985 1.62915242E-08
  1 986 1.64552611E-08
  1 987 1.64380113E-08
  1 988 1.63569438E-08
  1 989 1.66601316E-08
  1 990 1.73392397E-08
  1 991 1.83564401E-08
  1 992 1.90531408E-08
  1 993 2.00689834E-08
  1 994 2.07740842E-08
  1 995 2.12272429E-08
  1 996 2.13249665E-08
  1 997 2.14635189E-08
  1 998 2.18555149E-08
  1 999 2.18575897E-08
  1 1000 2.23250181E-08
  1 1001 1.39088111E-08
  1 1002 1.36767194E-08
  1 1003 1.37068533E-08
  1 1004 1.38213881E-08
  1 1005 1.42074596E-08
  1 1006 1.45174391E-08
  1 1007 1.49522217E-08
  1 1008 1.53764831E-08
  1 1009 1.58822558E-08
  1 1010 1.56337961E-08
  1 1011 1.49251964E-08
  1 1012 1.38775987E-08
  1 1013 1.29762892E-08
  1 1014 1.21445204E-08
  1 1015 1.17211436E-08
  1 1016 1.15374484E-08
  1 1017 1.11100239E-08
  1 1018 1.05979547E-08
  1 1019 1.02548445E-08
  1 1020 1.01894815E-08
  1 1021 1.04500699E-08
  1 1022 1.10135905E-08
  1 1023 1.21309673E-08
  1 1024 1.31404636E-08
  1 1025 1.36707265E-08
  1 1026 1.41660791E-08
  1 1027 1.49730954E-08
  1 1028 1.55519128E-08
  1 1029 1.55577723E-08
  1 1030 1.53188945E-08
  1 1031 1.48755200E-08
  1 1032 1.47492559E-08
  1 1033 1.43645626E-08
  1 1034 1.40099380E-08
  1 1035 1.39560277E-08
  1 1036 1.39208694E-08
  1 1037 1.44110491E-08
  1 1038 1.51169700E-08
  1 1039 1.58391316E-08
  1 1040 1.66064286E-08
  1 1041 1.76398792E-08
  1 1042 1.85280641E-08
  1 1043 1.95690164E-08
  1 1044 2.03743764E-08
  1 1045 2.12216216E-08
  1 1046 2.14425825E-08
  1 1047 2.15367150E-08
  1 1048 2.20884719E-08
  1 1049 2.22906328E-08
  1 1050 2.22027461E-08
  1 1051 2.17512492E-08
  1 1052 2.15904309E-08
  1 1053 2.17100360E-08
  1 1054 2.16772381E-08
  1 1055 2.18729896E-08
  1 1056 2.22169680E-08
  1 1057 2.26406053E-08
  1 1058 2.27625695E-08
  1 1059 2.35029524E-08
  1 1060 2.43941205E-08
  1 1061 2.53613566E-08
  1 1062 2.61933251E-08
  1 1063 2.70523666E-08
  1 1064 2.77698836E-08
  1 1065 2.81069887E-08
  1 1066 2.83255702E-08
  1 1067 2.84079917E-08
  1 1068 2.83728245E-08
  1 1069 2.84403252E-08
  1 1070 2.78234878E-08
  1 1071 2.69862858E-08
  1 1072 2.55712994E-08
  1 1073 2.43073528E-08
  1 1074 2.28074939E-08
  1 1075 2.10333969E-08
  1 1076 1.94993704E-08
  1 1077 1.82437409E-08
  1 1078 1.70689334E-08
  1 1079 1.63802714E-08
  1 1080 1.54569318E-08
  1 1081 1.41522185E-08
  1 1082 1.25474653E-08
  1 1083 1.13607041E-08
  1 1084 1.01680235E-08
  1 1085 9.22055552E-09
  1 1086 8.73308656E-09
  1 1087 8.52471619E-09
  1 1088 8.46578628E-09
  1 1089 8.75983830E-09
  1 1090 9.05174177E-09
  1 1091 9.35484662E-09
  1 1092 9.79898200E-09
  1 1093 9.90863482E-09
  1 1094 9.82286864E-09
  1 1095 9.91498117E-09
  1 1096 1.02601856E-08
  1 1097 1.10405954E-08
  1 1098 1.16583225E-08
  1 1099 1.23733028E-08
  1 1100 1.28965505E-08
  1 1101 1.34472291E-08
  1 1102 1.38914459E-08
  1 1103 1.41992201E-08
  1 1104 1.45661245E-08
  1 1105 1.48240355E-08
  1 1106 1.49366073E-08
  1 1107 1.54379676E-08
  1 1108 1.60721003E-08
  1 1109 1.70087101E-08
  1 1110 1.76731005E-08
  1 1111 1.85063615E-08
  1 1112 1.90997438E-08
  1 1113 1.97106438E-08
  1 1114 2.01283022E-08
  1 1115 2.09600373E-08
  1 1116 2.17417462E-08
  1 1117 2.22346256E-08
  1 1118 2.32086760E-08
  1 1119 2.37667810E-08
  1 1120 2.41415754E-08
  1 1121 2.41759805E-08
  1 1122 2.38896055E-08
  1 1123 2.32941888E-08
  1 1124 2.22781944E-08
  1 1125 2.12547765E-08
  1 1126 2.04730901E-08
  1 1127 1.99709394E-08
  1 1128 1.92734126E-08
  1 1129 1.89504427E-08
  1 1130 1.85733377E-08
  1 1131 1.83891696E-08
  1 1132 1.83883327E-08
  1 1133 1.82591383E-08
  1 1134 1.76438297E-08
  1 1135 1.70056018E-08
  1 1136 1.64609618E-08
  1 1137 1.55225498E-08
  1 1138 1.49586823E-08
  1 1139 1.46980367E-08
  1 1140 1.46639017E-08
  1 1141 1.45921835E-08
  1 1142 1.48231432E-08
  1 1143 1.56868761E-08
  1 1144 1.68433332E-08
  1 1145 1.78303126E-08
  1 1146 1.86870082E-08
  1 1147 1.92275037E-08
  1 1148 1.99279884E-08
  1 1149 2.01617559E-08
  1 1150 2.00795235E-08
  1 1151 1.98039008E-08
  1 1152 1.94484100E-08
  1 1153 1.86333007E-08
  1 1154 1.73779427E-08
  1 1155 1.58859799E-08
  1 1156 1.48467988E-08
  1 1157 1.41434635E-08
  1 1158 1.33598281E-08
  1 1159 1.26907629E-08
  1 1160 1.25580734E-08
  1 1161 1.25173498E-08
  1 1162 1.20996891E-08
  1 1163 1.11853223E-08
  1 1164 1.02951301E-08
  1 1165 9.36086728E-09
  1 1166 8.41342667E-09
  1 1167 8.16451846E-09
  1 1168 8.16295788E-09
  1 1169 8.05489722E-09
  1 1170 8.09719774E-09
  1 1171 8.30061009E-09
  1 1172 8.87468054E-09
  1 1173 9.72084180E-09
  1 1174 1.07757515E-08
  1 1175 1.15460997E-08
  1 1176 1.20928019E-08
  1 1177 1.24593048E-08
  1 1178 1.29202577E-08
  1 1179 1.36147258E-08
  1 1180 1.40187765E-08
  1 1181 1.43151587E-08
  1 1182 1.45405839E-08
  1 1183 1.49543583E-08
  1 1184 1.54564370E-08
  1 1185 1.60553031E-08
  1 1186 1.62862675E-08
  1 1187 1.62786897E-08
  1 1188 1.63306749E-08
  1 1189 1.64645475E-08
  1 1190 1.70692440E-08
  1 1191 1.79865392E-08
  1 1192 1.88253795E-08
  1 1193 1.96309893E-08
  1 1194 2.04145730E-08
  1 1195 2.11128992E-08
  1 1196 2.12862399E-08
  1 1197 2.12706686E-08
  1 1198 2.17195888E-08
  1 1199 2.17780176E-08
  1 1200 2.20509202E-08
  1 1201 1.42796216E-08
  1 1202 1.38175590E-08
  1 1203 1.38107669E-08
  1 1204 1.39474966E-08
  1 1205 1.43425442E-08
  1 1206 1.46007205E-08
  1 1207 1.49445020E-08
  1 1208 1.53150223E-08
  1 1209 1.59939868E-08
  1 1210 1.61082365E-08
  1 1211 1.54465506E-08
  1 1212 1.44772211E-08
  1 1213 1.34821131E-08
  1 1214 1.24977677E-08
  1 1215 1.20710203E-08
  1 1216 1.17618853E-08
  1 1217 1.14914304E-08
  1 1218 1.10149203E-08
  1 1219 1.05377905E-08
  1 1220 1.05099497E-08
  1 1221 1.06448528E-08
  1 1222 1.11303628E-08
  1 1223 1.20102384E-08
  1 1224 1.32777261E-08
  1 1225 1.40578179E-08
  1 1226 1.43888220E-08
  1 1227 1.51034734E-08
  1 1228 1.57921094E-08
  1 1229 1.59342871E-08
  1 1230 1.56642736E-08
  1 1231 1.53333409E-08
  1 1232 1.51963772E-08
  1 1233 1.48047738E-08
  1 1234 1.44871220E-08
  1 1235 1.42981997E-08
  1 1236 1.40692827E-08
  1 1237 1.44235282E-08
  1 1238 1.48519872E-08
  1 1239 1.56859453E-08
  1 1240 1.63670808E-08
  1 1241 1.73880250E-08
  1 1242 1.83323207E-08
  1 1243 1.92504068E-08
  1 1244 2.00736705E-08
  1 1245 2.09413603E-08
  1 1246 2.13784702E-08
  1 1247 2.13523483E-08
  1 1248 2.19269478E-08
  1 1249 2.22744814E-08
  1 1250 2.22892605E-08
  1 1251 2.19788029E-08
  1 1252 2.16435279E-08
  1 1253 2.17069974E-08
  1 1254 2.16316370E-08
  1 1255 2.17895918E-08
  1 1256 2.20299083E-08
  1 1257 2.25096414E-08
  1 1258 2.25931746E-08
  1 1259 2.31785031E-08
  1 1260 2.40201657E-08
  1 1261 2.50809143E-08
  1 1262 2.59667286E-08
  1 1263 2.68403649E-08
  1 1264 2.75331939E-08
  1 1265 2.80627640E-08
  1 1266 2.82493614E-08
  1 1267 2.83596756E-08
  1 1268 2.83338220E-08
  1 1269 2.84570298E-08
  1 1270 2.79737621E-08
  1 1271 2.73216824E-08
  1 1272 2.60734248E-08
  1 1273 2.47937998E-08
  1 1274 2.33294585E-08
  1 1275 2.17339636E-08
  1 1276 2.00310345E-08
  1 1277 1.88046586E-08
  1 1278 1.75612678E-08
  1 1279 1.66335499E-08
  1 1280 1.59929818E-08
  1 1281 1.48186262E-08
  1 1282 1.31375562E-08
  1 1283 1.17791948E-08
  1 1284 1.05491981E-08
  1 1285 9.50308727E-09
  1 1286 8.82226893E-09
  1 1287 8.65156891E-09
  1 1288 8.53558781E-09
  1 1289 8.67328050E-09