# File generated by Flopy version 3.6.0 on 03/18/2025 at 15:20:55.
BEGIN griddata
  strt
    INTERNAL  FACTOR  1.0
        25.00000000      23.28035532      22.33724304      21.76064980      21.38681898      21.13516369      20.96064697      20.83760091      20.74992870      20.68847841      20.64541032      20.61654114      20.59807716      20.58903107      20.58594337      20.58674877      20.59104237      20.59961188      20.61215432      20.62664396
        20.64198304      20.65828648      20.67512736      20.69194949      20.70789862      20.71997400      20.72777575      20.73150876      20.73148120      20.72787046      20.72215039      20.71389398      20.70324927      20.69037959      20.67536169      20.65863230      20.64035436      20.62015148      20.59828326      20.57482253
        20.54982787      20.52394586      20.49768715      20.47085538      20.44161766      20.40916829      20.37485247      20.33952993      20.30391636      20.26928008      20.23737800      20.20819581      20.18226909      20.15935086      20.13910119      20.12116373      20.10490276      20.08954333      20.07491865      20.06087181
        20.04699987      20.03385786      20.02201833      20.01157457      20.00198979      19.99169346      19.98017058      19.96776408      19.95359238      19.93852308      19.92233474      19.90496120      19.88635478      19.86721354      19.84790766      19.82829832      19.80844086      19.78892822      19.76951535      19.75054057
        19.73317600      19.71743792      19.70253174      19.68862988      19.67592125      19.66423031      19.65265219      19.64140422      19.63067189      19.61998213      19.60939597      19.59922051      19.58907100      19.57911228      19.56899361      19.55865217      19.54752028      19.53561249      19.52263512      19.50870828
        19.49392486      19.47839239      19.46155163      19.44350724      19.42416020      19.40358131      19.38150286      19.35799192      19.33322896      19.30702668      19.27962499      19.25120966      19.22207611      19.19259869      19.16359784      19.13612703      19.11118075      19.08966750      19.07223918      19.05957065
        19.05201921      19.04945273      19.05133269      19.05685930      19.06509320      19.07514584      19.08616838      19.09753674      19.10880960      19.11956111      19.12955334      19.13861343      19.14667440      19.15373827      19.15976676      19.16476315      19.16874704      19.17174182      19.17379039      19.17492011
        19.17520294      19.17456279      19.17292004      19.17022839      19.16642126      19.16145052      19.15521345      19.14759014      19.13845356      19.12761308      19.11496116      19.10039332      19.08373590      19.06476010      19.04321009      19.01890563      18.99135381      18.95994240      18.92456777      18.88508301
        18.84163999      18.79393255      18.74166181      18.68509848      18.62472953      18.56070816      18.49305146      18.42234465      18.34876528      18.27202784      18.19275306      18.11216697      18.03079105      17.94894907      17.86762008      17.78716485      17.70761854      17.62927458      17.55211742      17.47629320
        17.40199568      17.32939725      17.25798181      17.18745939      17.11785584      17.04851947      16.97940458      16.91077206      16.84234782      16.77388630      16.70512152      16.63598962      16.56639657      16.49559121      16.42258872      16.34670697      16.26741153      16.18395055      16.09539867      16.00000000
        25.00000000      23.90085744      23.07924113      22.49733221      22.08391485      21.78883060      21.57556060      21.41976694      21.30539425      21.22249224      21.16225887      21.11846140      21.08687314      21.06326378      21.04557337      21.03499610      21.03055825      21.03101491      21.03544026      21.04228775
        21.05057573      21.05962597      21.06772085      21.07484559      21.07867821      21.07833094      21.07386775      21.06534272      21.05282102      21.03753170      21.02067674      21.00232396      20.98213612      20.96013767      20.93640466      20.91171017      20.88553150      20.85774003      20.82832857      20.79784808
        20.76738956      20.73707944      20.70668465      20.67535195      20.64250571      20.60820757      20.57298605      20.53789225      20.50386971      20.47143856      20.44116217      20.41272033      20.38638982      20.36260931      20.34131281      20.32212380      20.30516093      20.29014690      20.27661093      20.26464551
        20.25316853      20.24144938      20.22935992      20.21662014      20.20339746      20.18978721      20.17502185      20.15863378      20.14013043      20.11978679      20.09814179      20.07565921      20.05236265      20.02849856      20.00457193      19.98084799      19.95749967      19.93461402      19.91211311      19.88999566
        19.86892626      19.84944784      19.83130466      19.81421882      19.79803691      19.78252686      19.76736987      19.75243443      19.73757464      19.72270835      19.70762763      19.69234806      19.67689832      19.66138616      19.64579256      19.63015061      19.61434555      19.59832094      19.58187322      19.56467477
        19.54674472      19.52802356      19.50832297      19.48743872      19.46523598      19.44155746      19.41653376      19.39013360      19.36245715      19.33346248      19.30320216      19.27188703      19.23968733      19.20703666      19.17468668      19.14376863      19.11555338      19.09116871      19.07148346      19.05731572
        19.04912812      19.04671303      19.04935647      19.05601986      19.06554846      19.07683920      19.08897821      19.10136632      19.11352114      19.12502984      19.13566369      19.14526898      19.15374356      19.16107645      19.16725498      19.17228805      19.17625504      19.17921396      19.18122172      19.18233489
        19.18257535      19.18189929      19.18020556      19.17744220      19.17354860      19.16844644      19.16204106      19.15422909      19.14487925      19.13377217      19.12074353      19.10563002      19.08831418      19.06863788      19.04630619      19.02110157      18.99276103      18.96089719      18.92516133      18.88536475
        18.84158873      18.79367656      18.74125976      18.68444048      18.62370469      18.55913795      18.49091231      18.41950652      18.34502828      18.26766283      18.18842482      18.10790667      18.02636049      17.94449303      17.86328950      17.78319545      17.70393397      17.62558666      17.54855548      17.47295074
        17.39874509      17.32605570      17.25475411      17.18452672      17.11495034      17.04567314      16.97681104      16.90828986      16.83976591      16.77130089      16.70278860      16.63401679      16.56487300      16.49443708      16.42156831      16.34585551      16.26669203      16.18329162      16.09500501      16.00000000
        25.00000000      24.23215149      23.57444542      23.05481725      22.65622785      22.35340446      22.12397318      21.94916847      21.81552224      21.71371150      21.63605032      21.57575583      21.52810803      21.49153390      21.46545319      21.44963556      21.44116958      21.43707081      21.43509002      21.43497344
        21.43495134      21.43371230      21.43085334      21.42574004      21.41686340      21.40477779      21.38907955      21.37051525      21.34966164      21.32652433      21.30068315      21.27238892      21.24277296      21.21236648      21.18104569      21.14893608      21.11622446      21.08264294      21.04828151      21.01377504
        20.97907799      20.94389394      20.90838424      20.87238452      20.83676784      20.80203659      20.76828387      20.73501866      20.70278091      20.67148211      20.64139161      20.61260966      20.58570082      20.56116213      20.53892254      20.51847439      20.49968469      20.48344080      20.46884752      20.45525369
        20.44214124      20.42827518      20.41341331      20.39766763      20.38083056      20.36270114      20.34302869      20.32196656      20.29969687      20.27636903      20.25213029      20.22700740      20.20131974      20.17484200      20.14778809      20.12119408      20.09512231      20.06967493      20.04467458      20.02004949
        19.99578660      19.97240149      19.95018736      19.92882188      19.90803039      19.88782324      19.86835397      19.84910530      19.82978924      19.81046813      19.79086413      19.77083195      19.75062053      19.73054149      19.71075118      19.69120934      19.67183454      19.65238751      19.63270840      19.61239495
        19.59146683      19.56990133      19.54740951      19.52379985      19.49909215      19.47308973      19.44565819      19.41688746      19.38680559      19.35529218      19.32233762      19.28800757      19.25250212      19.21632772      19.18028782      19.14554556      19.11353966      19.08567712      19.06317721      19.04726684
        19.03868548      19.03709573      19.04139676      19.05011511      19.06176909      19.07505381      19.08898020      19.10291915      19.11637393      19.12895913      19.14047114      19.15077455      19.15976590      19.16744256      19.17386017      19.17907457      19.18316694      19.18623123      19.18831668      19.18946011
        19.18967826      19.18898413      19.18730523      19.18455072      19.18065175      19.17550964      19.16903737      19.16108254      19.15154683      19.14021396      19.12685613      19.11132811      19.09349396      19.07315490      19.05008007      19.02408045      18.99489130      18.96217685      18.92578006      18.88550839
        18.84122813      18.79269329      18.73955662      18.68186949      18.62009257      18.55444869      18.48524267      18.41284075      18.33743021      18.25959234      18.17997782      18.09890478      18.01699889      17.93518170      17.85426617      17.77453738      17.69566063      17.61762174      17.54074578      17.46523308
        17.39109130      17.31848288      17.24747226      17.17763901      17.10840857      17.03939326      16.97054546      16.90190249      16.83347385      16.76545022      16.69743967      16.62930222      16.56072643      16.49053822      16.41801802      16.34273241      16.26409953      16.18140393      16.09394540      16.00000000
        25.00000000      24.43408698      23.91677800      23.47695003      23.11760419      22.82913114      22.59994904      22.41941743      22.27648439      22.16235777      22.07085420      21.99740864      21.94040976      21.89887090      21.87092755      21.85187738      21.83833177      21.82748859      21.81705503      21.80661243
        21.79640163      21.78589038      21.77325011      21.75714792      21.73815768      21.71648628      21.69163693      21.66406502      21.63433137      21.60225049      21.56763462      21.53101756      21.49335351      21.45547523      21.41722749      21.37849381      21.33960282      21.30063083      21.26201909      21.22342471
        21.18410524      21.14421782      21.10461723      21.06622527      21.02985209      20.99566254      20.96323231      20.93151297      20.90061223      20.86981384      20.83957387      20.81043134      20.78273595      20.75665926      20.73207340      20.70875007      20.68680748      20.66680430      20.64822809      20.62987385
        20.61187002      20.59383616      20.57503435      20.55485889      20.53330597      20.51061502      20.48699824      20.46291561      20.43836347      20.41319546      20.38733729      20.36042230      20.33279046      20.30473677      20.27634755      20.24801148      20.21986606      20.19207113      20.16456646      20.13716422
        20.10957645      20.08210630      20.05524087      20.02912781      20.00376023      19.97896251      19.95475857      19.93107478      19.90770915      19.88433797      19.86090055      19.83734051      19.81365113      19.79010912      19.76687928      19.74388756      19.72113539      19.69849642      19.67585550      19.65298058
        19.62962764      19.60571673      19.58099144      19.55515872      19.52830319      19.50031212      19.47089163      19.44003184      19.40779565      19.37390623      19.33827121      19.30091289      19.26192298      19.22189972      19.18170890      19.14246707      19.10568522      19.07321797      19.04706994      19.02918089
        19.02058291      19.02065228      19.02774403      19.03967527      19.05446847      19.07061223      19.08697099      19.10290423      19.11797836      19.13188197      19.14441815      19.15548788      19.16505677      19.17316790      19.17996656      19.18550953      19.18985615      19.19309140      19.19528268      19.19646762
        19.19668244      19.19597458      19.19430843      19.19157177      19.18769294      19.18255960      19.17606790      19.16806134      19.15839767      19.14690518      19.13336344      19.11753710      19.09921347      19.07819524      19.05429091      19.02736448      18.99720164      18.96346859      18.92609800      18.88494987
        18.83975986      18.79009201      18.73568284      18.67670110      18.61353169      18.54650656      18.47594899      18.40223653      18.32554246      18.24651443      18.16599093      18.08439893      18.00241042      17.92078968      17.84014968      17.76061646      17.68185944      17.60411122      17.52748204      17.45195071
        17.37774967      17.30541644      17.23485570      17.16544299      17.09656674      17.02779593      16.95915154      16.89066522      16.82253532      16.75494933      16.68755839      16.62026829      16.55270110      16.48354576      16.41188817      16.33728272      16.25962668      16.17841671      16.09243741      16.00000000
        25.00000000      24.57160890      24.16599420      23.80301609      23.49054598      23.22864229      23.01225765      22.83671696      22.69464177      22.57950319      22.48636082      22.41200433      22.35516113      22.31340400      22.28229309      22.25728022      22.23464880      22.21291862      22.19207753      22.17140665
        22.15163110      22.13129438      22.10852247      22.08251868      22.05405417      22.02174708      21.98584177      21.94726596      21.90723131      21.86536287      21.82240633      21.77899699      21.73480372      21.69029596      21.64623662      21.60227094      21.55819710      21.51408050      21.47046402      21.42725717
        21.38417180      21.34151935      21.30017239      21.26094573      21.22423834      21.19008471      21.15756537      21.12624321      21.09558730      21.06509279      21.03444448      21.00398974      20.97362295      20.94357461      20.91448822      20.88662449      20.86007499      20.83433299      20.80961945      20.78556390
        20.76225899      20.73930144      20.71586260      20.69143568      20.66620200      20.64049245      20.61479946      20.58913836      20.56286422      20.53540690      20.50723328      20.47860943      20.44954176      20.42025483      20.39068265      20.36069301      20.33055391      20.30040249      20.27010284      20.23943930
        20.20852332      20.17748889      20.14664728      20.11618343      20.08641587      20.05734978      20.02894728      20.00137943      19.97450714      19.94788141      19.92125630      19.89482608      19.86843564      19.84199538      19.81579402      19.78991239      19.76425836      19.73892426      19.71381098      19.68859828
        19.66307993      19.63723945      19.61078702      19.58330088      19.55475917      19.52506356      19.49392158      19.46114041      19.42673534      19.39041463      19.35207433      19.31172475      19.26924104      19.22500532      19.17985786      19.13493233      19.09201833      19.05369989      19.02291969      19.00256398
        18.99415033      18.99684554      19.00813733      19.02480900      19.04408702      19.06401732      19.08346755      19.10191363      19.11893762      19.13429427      19.14793196      19.15983175      19.17008184      19.17876128      19.18601126      19.19188289      19.19644485      19.19982296      19.20208700      19.20331201
        19.20356044      19.20287449      19.20123038      19.19854295      19.19471722      19.18964858      19.18320363      19.17522962      19.16553192      19.15392545      19.14014314      19.12393781      19.10512071      19.08344680      19.05870289      19.03075747      18.99940044      18.96445547      18.92594274      18.88352394
        18.83677021      18.78527754      18.72891269      18.66798294      18.60294628      18.53413203      18.46175897      18.38648647      18.30853346      18.22827447      18.14666177      18.06443056      17.98220073      17.90035119      17.81937436      17.73958050      17.66079240      17.58305048      17.50627881      17.43080388
        17.35722959      17.28556759      17.21538339      17.14626878      17.07782569      17.00941199      16.94105254      16.87309212      16.80570102      16.73906652      16.67313525      16.60740460      16.54117851      16.47318326      16.40264791      16.32949272      16.25358617      16.17410829      16.09006368      16.00000000
        25.00000000      24.67423935      24.35786977      24.06380666      23.80061578      23.57289539      23.37931035      23.21872390      23.08717262      22.98031255      22.89522806      22.82883160      22.77663024      22.73330786      22.69596783      22.66194917      22.62927939      22.59741967      22.56681802      22.53680861
        22.50582361      22.47276716      22.43740635      22.39943298      22.35854782      22.31449641      22.26795207      22.21964926      22.17056547      22.12086798      22.07036993      22.01950998      21.96911826      21.91917400      21.86981719      21.82020243      21.77056999      21.72171274      21.67393247      21.62718581
        21.58160330      21.53730517      21.49454792      21.45440331      21.41684314      21.38154704      21.34766170      21.31484486      21.28223034      21.24944606      21.21610844      21.18220541      21.14746289      21.11270191      21.07876186      21.04590190      21.01408130      20.98281293      20.95259377      20.92371075
        20.89589176      20.86835988      20.84067952      20.81295522      20.78518960      20.75766645      20.73009714      20.70233340      20.67388813      20.64443155      20.61436481      20.58411726      20.55354575      20.52249696      20.49103741      20.45918024      20.42696799      20.39440310      20.36164546      20.32825915
        20.29430373      20.25997687      20.22564730      20.19162541      20.15829767      20.12590693      20.09437030      20.06357993      20.03356079      20.00415359      19.97493020      19.94593035      19.91723058      19.88849397      19.85991314      19.83170185      19.80381947      19.77608529      19.74856299      19.72112623
        19.69360977      19.66598456      19.63800996      19.60923667      19.57936080      19.54822223      19.51556127      19.48113333      19.44477741      19.40615236      19.36511945      19.32155886      19.27526819      19.22636590      19.17552022      19.12389991      19.07350311      19.02745775      18.98985922      18.96526635
        18.95695044      18.96399190      18.98188106      19.00546846      19.03090366      19.05586000      19.07918482      19.10050556      19.11969167      19.13670699      19.15158122      19.16445215      19.17546891      19.18467666      19.19226113      19.19836175      19.20308073      19.20655167      19.20886505      19.21012327
        19.21039705      19.20974422      19.20816572      19.20556648      19.20183585      19.19687030      19.19051373      19.18260492      19.17290021      19.16116575      19.14714107      19.13056774      19.11117953      19.08872886      19.06294792      19.03377988      19.00107640      18.96461916      18.92424751      18.87960280
        18.83048499      18.77680759      18.71837839      18.65533880      18.58812223      18.51691752      18.44230901      18.36506589      18.28528141      18.20361180      18.12094768      18.03757995      17.95390916      17.87068565      17.78875992      17.70833702      17.62916144      17.55151504      17.47554395      17.40109589
        17.32823492      17.25701633      17.18737290      17.11889641      17.05110065      16.98334004      16.91583928      16.84911457      16.78347312      16.71893523      16.65498696      16.59089271      16.52584947      16.45899661      16.39001744      16.31892108      16.24526580      16.16825135      16.08698909      16.00000000
        25.00000000      24.75482345      24.51152690      24.28030748      24.06754890      23.87912654      23.71634911      23.57905040      23.46576869      23.37366151      23.29964258      23.23917419      23.18822989      23.14233136      23.09986366      23.05896364      23.01909548      22.97957616      22.93996124      22.89874662
        22.85429671      22.80704736      22.75798669      22.70718082      22.65395350      22.60006274      22.54578237      22.48995987      22.43193127      22.37341790      22.31480502      22.25684038      22.19955443      22.14287656      22.08667253      22.03117573      21.97625153      21.92270591      21.87079672      21.82067378
        21.77226136      21.72568215      21.68151431      21.63979575      21.60025626      21.56206725      21.52487417      21.48827457      21.45183443      21.41488309      21.37744214      21.33933392      21.30066683      21.26229212      21.22435137      21.18697536      21.15052430      21.11509758      21.08076357      21.04768790
        21.01578044      20.98461604      20.95394641      20.92375717      20.89369914      20.86367844      20.83346005      20.80310259      20.77250272      20.74169699      20.71060868      20.67896701      20.64680290      20.61412976      20.58101490      20.54738373      20.51319657      20.47831109      20.44303657      20.40727749
        20.37072277      20.33364196      20.29637350      20.25937465      20.22319443      20.18803650      20.15376796      20.12025880      20.08758962      20.05567297      20.02424615      19.99306007      19.96224298      19.93175086      19.90139966      19.87117207      19.84113403      19.81128650      19.78164626      19.75218060
        19.72291623      19.69374206      19.66433347      19.63431219      19.60324323      19.57084185      19.53683831      19.50088386      19.46268580      19.42182103      19.37810114      19.33126984      19.28103051      19.22737665      19.17062365      19.11149685      19.05172958      18.99473568      18.94553675      18.91222939
        18.90376618      18.91907420      18.94814244      18.98211834      19.01580917      19.04694305      19.07475892      19.09937937      19.12104320      19.13988271      19.15607547      19.16988313      19.18150407      19.19110863      19.19895989      19.20522434      19.21002990      19.21352266      19.21584002      19.21712271
        19.21742770      19.21677381      19.21520842      19.21266825      19.20904250      19.20421219      19.19798653      19.19016524      19.18046889      19.16860153      19.15428199      19.13721728      19.11709923      19.09367461      19.06653255      19.03567815      19.00108178      18.96243075      18.91954157      18.87219521
        18.82057459      18.76461092      18.70373770      18.63797666      18.56790087      18.49365911      18.41594460      18.33601621      18.25410443      18.17031018      18.08496847      17.99885967      17.91291958      17.82820139      17.74551744      17.66493114      17.58632480      17.50970155      17.43474376      17.36129150
        17.28939647      17.21931694      17.15067217      17.08313904      17.01639207      16.95002344      16.88437020      16.81989055      16.75660402      16.69431867      16.63234401      16.56980788      16.50603563      16.44071480      16.37382982      16.30528694      16.23453000      16.16058561      16.08275467      16.00000000
        25.00000000      24.82163473      24.64187783      24.46856935      24.30658893      24.15992057      24.03258067      23.92480577      23.83438621      23.75969649      23.69709513      23.64241934      23.59226732      23.54548921      23.50061562      23.45610811      23.41044212      23.36112680      23.30814670      23.25211732
        23.19430913      23.13421380      23.07263928      23.01023696      22.94750167      22.88479233      22.82143140      22.75650656      22.68971412      22.62250688      22.55531141      22.48896754      22.42337679      22.35858825      22.29471764      22.23251975      22.17235311      22.11391529      22.05730993      22.00307971
        21.95159053      21.90236399      21.85539811      21.81033146      21.76659206      21.72407707      21.68272685      21.64211759      21.60162864      21.56070685      21.51926366      21.47747288      21.43548243      21.39382109      21.35252084      21.31177943      21.27176972      21.23303770      21.19556478      21.15937012
        21.12438463      21.09048795      21.05729886      21.02451308      20.99206564      20.95961861      20.92716930      20.89503021      20.86326769      20.83133734      20.79917045      20.76649050      20.73305689      20.69902379      20.66437230      20.62908235      20.59309793      20.55650001      20.51913809      20.48103759
        20.44213030      20.40254887      20.36274564      20.32326552      20.28448115      20.24669518      20.20971181      20.17371380      20.13885234      20.10483080      20.07138539      20.03846963      20.00584168      19.97347585      19.94129166      19.90934783      19.87754708      19.84597136      19.81479986      19.78389871
        19.75319795      19.72259867      19.69171606      19.66025823      19.62794867      19.59428741      19.55883873      19.52127566      19.48124663      19.43819628      19.39187405      19.34207147      19.28840313      19.23049662      19.16783599      19.10037606      19.02904832      18.95576014      18.88603418      18.83498313
        18.82663309      18.85903534      18.90713499      18.95621936      19.00048083      19.03876125      19.07153944      19.09971567      19.12392996      19.14455157      19.16191484      19.17641876      19.18843874      19.19830540      19.20631912      19.21266118      19.21748710      19.22095156      19.22322893      19.22445888
        19.22469871      19.22398979      19.22240556      19.21992405      19.21644225      19.21179770      19.20572098      19.19796474      19.18826636      19.17621802      19.16146172      19.14371176      19.12260846      19.09774364      19.06870843      19.03545771      18.99825889      18.95690763      18.91118523      18.86102585
        18.80662062      18.74749562      18.68312430      18.61383588      18.54003085      18.46186429      18.38042383      18.29671658      18.21070928      18.12273055      18.03382170      17.94515433      17.85765853      17.77215747      17.68933059      17.60947269      17.53222856      17.45710818      17.38381219      17.31228551
        17.24222112      17.17346244      17.10587105      17.03954357      16.97430384      16.91005473      16.84702648      16.78517766      16.72427425      16.66381085      16.60332962      16.54246991      16.48075049      16.41785476      16.35373505      16.28832617      16.22110583      16.15127025      16.07797311      16.00000000
        25.00000000      24.88048012      24.75833833      24.63906912      24.52709820      24.42551811      24.33575296      24.25896111      24.19356132      24.13685599      24.08621153      24.03981152      23.99438470      23.94946588      23.90233314      23.85037469      23.79284859      23.72982484      23.66226718      23.59235381
        23.52182670      23.45099306      23.37969450      23.30728732      23.23455215      23.16155563      23.08798729      23.01398656      22.93956687      22.86412924      22.78830524      22.71263041      22.63771397      22.56404312      22.49221633      22.42261212      22.35604979      22.29233841      22.23134785      22.17327395
        22.11787347      22.06468812      22.01307117      21.96345112      21.91557494      21.86923387      21.82422963      21.77985918      21.73544341      21.69071331      21.64580276      21.60102853      21.55590036      21.51081172      21.46651448      21.42336048      21.38107311      21.33994739      21.30007805      21.26135252
        21.22357252      21.18679561      21.15085050      21.11564996      21.08109770      21.04721553      21.01369015      20.98059367      20.94803733      20.91523893      20.88195700      20.84827413      20.81396185      20.77888309      20.74306667      20.70653842      20.66909879      20.63082778      20.59167475      20.55157897
        20.51071045      20.46911697      20.42692889      20.38480199      20.34341398      20.30318555      20.26405501      20.22584341      20.18883431      20.15304593      20.11788080      20.08320269      20.04895087      20.01495330      19.98115452      19.94771891      19.91467809      19.88195949      19.84962294      19.81758421
        19.78568724      19.75380712      19.72154919      19.68862292      19.65481460      19.61969490      19.58264992      19.54330052      19.50139014      19.45639338      19.40800327      19.35587290      19.29918500      19.23725054      19.16920283      19.09365406      19.00878899      18.91356209      18.81110422      18.72263030
        18.71546667      18.78425318      18.86265895      18.93158725      18.98804234      19.03385036      19.07153448      19.10299604      19.12929842      19.15121358      19.16934313      19.18425666      19.19653980      19.20656778      19.21459987      19.22087824      19.22560422      19.22893882      19.23105650      19.23211392