# File generated by Flopy version 3.6.0 on 03/13/2025 at 12:11:31.
BEGIN griddata
  strt
    INTERNAL  FACTOR  1.0
        25.00000000      23.29160570      22.35684307      21.78623081      21.41659805      21.16776532      20.99492723      20.87261493      20.78498616      20.72304425      20.67913604      20.64928518      20.62979665      20.61974643      20.61573438      20.61576530      20.61951947      20.62792655      20.64074982      20.65596890
        20.67244118      20.69016692      20.70863976      20.72728926      20.74515859      20.75905937      20.76851351      20.77374508      20.77509387      20.77281892      20.76852330      20.76184230      20.75301487      20.74224618      20.72963664      20.71561713      20.70031100      20.68327505      20.66474562      20.64472935
        20.62322881      20.60085565      20.57804127      20.55449105      20.52824811      20.49847954      20.46658304      20.43342881      20.39978271      20.36702664      20.33705228      20.30984827      20.28602466      20.26535013      20.24746499      20.23196272      20.21814900      20.20519365      20.19289371      20.18104426
        20.16913835      20.15771751      20.14733638      20.13803197      20.12915842      20.11897467      20.10690672      20.09329729      20.07714356      20.05942067      20.03995205      20.01873483      19.99582004      19.97212648      19.94815897      19.92382189      19.89920271      19.87497328      19.85087089      19.82728484
        19.80556665      19.78579339      19.76714707      19.74988644      19.73426518      19.72012453      19.70648726      19.69355552      19.68145904      19.66962328      19.65809156      19.64721171      19.63662518      19.62654342      19.61661067      19.60674753      19.59633365      19.58541713      19.57373658      19.56149284
        19.54884581      19.53595420      19.52230098      19.50815083      19.49350424      19.47853264      19.46301557      19.44714462      19.43111914      19.41477607      19.39843140      19.38218068      19.36626340      19.35090417      19.33653696      19.32344737      19.31170037      19.30108221      19.29138899      19.28273902
        19.27505228      19.26826387      19.26232224      19.25725342      19.25292855      19.24932251      19.24628236      19.24362353      19.24135151      19.23933500      19.23745780      19.23560498      19.23371587      19.23182241      19.22992525      19.22802310      19.22608753      19.22406291      19.22191383      19.21955861
        19.21700384      19.21409155      19.21063745      19.20650093      19.20151553      19.19554038      19.18838716      19.17986115      19.16977736      19.15789273      19.14401293      19.12800749      19.10969929      19.08889816      19.06541179      19.03916001      19.00977329      18.97636291      18.93852439      18.89623150
        18.84973803      18.79881130      18.74324195      18.68345230      18.62008777      18.55342024      18.48356665      18.41122455      18.33666545      18.25968011      18.18091783      18.10152333      18.02188624      17.94221175      17.86339044      17.78573180      17.70921716      17.63405485      17.56017296      17.48773935
        17.41705101      17.34824726      17.28075022      17.21414754      17.14839894      17.08287512      17.01754935      16.95267041      16.88790858      16.82284696      16.75697232      16.68991337      16.62124548      16.54989458      16.47453953      16.39414076      16.30775059      16.21418327      16.11216029      16.00000000
        25.00000000      23.91464179      23.10341510      22.52906056      22.12098383      21.82950233      21.61840769      21.46355927      21.34918682      21.26563587      21.20428715      21.15913938      21.12612586      21.10107911      21.08204195      21.07033484      21.06508205      21.06515607      21.06971088      21.07722426
        21.08668373      21.09727519      21.10713024      21.11619737      21.12204040      21.12362658      21.12092314      21.11398307      21.10291019      21.08903232      21.07367966      21.05700719      21.03875439      21.01898691      20.99781706      20.97603756      20.95306085      20.92870073      20.90291276      20.87620771
        20.84966131      20.82333204      20.79686045      20.76923505      20.73982737      20.70875412      20.67657716      20.64437010      20.61311997      20.58341516      20.55587104      20.53014306      20.50655576      20.48562393      20.46728418      20.45110765      20.43720929      20.42530829      20.41487509      20.40595441
        20.39728828      20.38799014      20.37781649      20.36638016      20.35381414      20.34020780      20.32471175      20.30677102      20.28582236      20.26217083      20.23649281      20.20939279      20.18099427      20.15170900      20.12222623      20.09292355      20.06402706      20.03565835      20.00773770      19.98026414
        19.95403232      19.92973590      19.90715915      19.88607186      19.86637079      19.84783405      19.83011481      19.81303494      19.79637290      19.77997491      19.76358494      19.74722824      19.73098034      19.71499184      19.69926469      19.68383250      19.66856782      19.65344361      19.63829752      19.62283633
        19.60713840      19.59120256      19.57492911      19.55822405      19.54103902      19.52330476      19.50531392      19.48718689      19.46908403      19.45103169      19.43312006      19.41554212      19.39848630      19.38214681      19.36667433      19.35231297      19.33919778      19.32723948      19.31632219      19.30639574
        19.29744780      19.28941106      19.28226637      19.27599938      19.27055907      19.26584983      19.26179131      19.25826123      19.25519468      19.25249827      19.25006031      19.24775147      19.24548292      19.24319665      19.24085642      19.23848163      19.23610278      19.23368758      19.23120887      19.22862484
        19.22586934      19.22281307      19.21923778      19.21498420      19.20988816      19.20377135      19.19644958      19.18773937      19.17745292      19.16531713      19.15107443      19.13451500      19.11552034      19.09395804      19.06959066      19.04226853      19.01176299      18.97758281      18.93925109      18.89658082
        18.84971002      18.79854782      18.74280410      18.68271591      18.61893543      18.55167391      18.48121636      18.40814821      18.33267061      18.25505049      18.17632878      18.09701775      18.01724074      17.93756829      17.85888967      17.78160034      17.70539010      17.63025984      17.55652402      17.48430078
        17.41369144      17.34480219      17.27742493      17.21112590      17.14542907      17.07998510      17.01491177      16.95015308      16.88532446      16.82031028      16.75474115      16.68811255      16.61997652      16.54908840      16.47394972      16.39377988      16.30754383      16.21397613      16.11206613      16.00000000
        25.00000000      24.24754593      23.60162423      23.09065426      22.69822482      22.39958958      22.17274418      21.99912789      21.86551010      21.76290515      21.68391973      21.62195764      21.57250936      21.53415711      21.50645320      21.48926657      21.47978658      21.47513112      21.47313824      21.47360811
        21.47473432      21.47507736      21.47407013      21.47097439      21.46419092      21.45418229      21.44042997      21.42365248      21.40447247      21.38296723      21.35881130      21.33233524      21.30477451      21.27674283      21.24815688      21.21915074      21.18986652      21.15998021      21.12956350      21.09923588
        21.06888172      21.03809145      21.00689325      20.97500773      20.94334086      20.91247998      20.88253160      20.85295103      20.82428629      20.79644307      20.76971870      20.74425019      20.72066953      20.69954620      20.68080816      20.66389556      20.64863829      20.63599392      20.62497668      20.61480344
        20.60481202      20.59357736      20.58073881      20.56632611      20.55005621      20.53168326      20.51093168      20.48795060      20.46291972      20.43600234      20.40742261      20.37730716      20.34611422      20.31372868      20.28051980      20.24773011      20.21548912      20.18395135      20.15293369      20.12235217
        20.09226118      20.06334701      20.03600903      20.00997363      19.98501601      19.96116830      19.93859087      19.91669292      19.89511208      19.87385378      19.85258003      19.83112865      19.80979571      19.78895161      19.76879332      19.74928962      19.73035545      19.71175378      19.69335023      19.67479039
        19.65616768      19.63750138      19.61858424      19.59932911      19.57985069      19.56014077      19.54029732      19.52054811      19.50096014      19.48153872      19.46238043      19.44363179      19.42548998      19.40811264      19.39163097      19.37616999      19.36192120      19.34891507      19.33702727      19.32615277
        19.31621416      19.30715933      19.29899509      19.29174097      19.28536456      19.27979723      19.27499229      19.27082581      19.26718730      19.26399757      19.26114681      19.25848279      19.25588557      19.25329223      19.25064247      19.24795089      19.24526427      19.24260332      19.23991879      19.23714589
        19.23421135      19.23103848      19.22742551      19.22316002      19.21806890      19.21194390      19.20460191      19.19579505      19.18535892      19.17301895      19.15848983      19.14153872      19.12200805      19.09972066      19.07449014      19.04620043      19.01460955      18.97934389      18.94020399      18.89697867
        18.84954841      18.79770542      18.74117630      18.68013730      18.61522229      18.54680470      18.47531354      18.40121259      18.32477584      18.24666357      18.16755461      18.08771023      18.00762330      17.92805206      17.84970033      17.77279740      17.69699527      17.62220458      17.54865716      17.47654003
        17.40598791      17.33715716      17.27005657      17.20416204      17.13882830      17.07366469      17.00862813      16.94377758      16.87908051      16.81456301      16.74958374      16.68370039      16.61626912      16.54576469      16.47107827      16.39138470      16.30567471      16.21271906      16.11140300      16.00000000
        25.00000000      24.45049503      23.94586494      23.51539833      23.16275549      22.87888284      22.65260177      22.47347946      22.33068486      22.21572534      22.12274112      22.04737338      21.98827352      21.94466123      21.91484121      21.89417261      21.87938474      21.86778086      21.85716958      21.84718852
        21.83806405      21.82916184      21.81848318      21.80453233      21.78780379      21.76843103      21.74580903      21.72032742      21.69256060      21.66237930      21.62967967      21.59510487      21.55970512      21.52439134      21.48905248      21.45360101      21.41835253      21.38334636      21.34901225      21.31495339
        21.28031814      21.24518699      21.21033013      21.17660075      21.14483438      21.11523205      21.08734301      21.06005040      21.03344266      21.00675108      20.98047690      20.95524485      20.93144843      20.90928044      20.88860084      20.86914948      20.85104130      20.83486631      20.82001201      20.80509381
        20.79015911      20.77471769      20.75787644      20.73888346      20.71767265      20.69448560      20.66956234      20.64339606      20.61595102      20.58706493      20.55671658      20.52459869      20.49119011      20.45693140      20.42204044      20.38707188      20.35227137      20.31787531      20.28384074      20.24995167
        20.21595521      20.18231012      20.14965220      20.11822409      20.08808562      20.05907367      20.03120715      20.00437616      19.97831635      19.95262669      19.92720063      19.90195900      19.87691033      19.85238669      19.82859718      19.80548292      19.78304976      19.76117595      19.73978025      19.71868482
        19.69768557      19.67673873      19.65568005      19.63434273      19.61298531      19.59170713      19.57042205      19.54927009      19.52841608      19.50783537      19.48760981      19.46785273      19.44862990      19.43021361      19.41277195      19.39642675      19.38130262      19.36747883      19.35481530      19.34320015
        19.33247012      19.32255995      19.31348664      19.30538191      19.29825674      19.29203657      19.28662746      19.28193417      19.27784225      19.27424238      19.27103025      19.26805610      19.26519042      19.26237595      19.25957441      19.25675831      19.25392496      19.25109278      19.24826243      19.24534717
        19.24226784      19.23898008      19.23533285      19.23108383      19.22604705      19.21999345      19.21271184      19.20394302      19.19345784      19.18101739      19.16634926      19.14916738      19.12916544      19.10614555      19.07996724      19.05057757      19.01780754      18.98131856      18.94104761      18.89684648
        18.84843755      18.79538712      18.73749875      18.67506729      18.60864505      18.53874042      18.46581791      18.39034986      18.31258542      18.23325321      18.15322264      18.07287826      17.99275884      17.91345228      17.83543286      17.75876866      17.68311820      17.60865600      17.53539909      17.46330283
        17.39269723      17.32410546      17.25742024      17.19195216      17.12699008      17.06209217      16.99727478      16.93259764      16.86823266      16.80421519      16.73995247      16.67502295      16.60873270      16.53940240      16.46569368      16.38671838      16.30195096      16.21039489      16.11032047      16.00000000
        25.00000000      24.58859338      24.19616373      23.84297220      23.53757227      23.28055942      23.06730734      22.89334863      22.75153691      22.63558838      22.54087727      22.46436645      22.40507356      22.36085551      22.32749907      22.30054786      22.27638366      22.25364312      22.23243203      22.21209729
        22.19336181      22.17467885      22.15401695      22.13038855      22.10444267      22.07473331      22.04140883      22.00530260      21.96760629      21.92799684      21.88729996      21.84625093      21.80459493      21.76288959      21.72196833      21.68150778      21.64130722      21.60142115      21.56236478      21.52398878
        21.48594621      21.44849909      21.41244043      21.37850925      21.34709224      21.31821327      21.29089360      21.26468091      21.23898332      21.21324078      21.18714200      21.16111466      21.13506523      21.10921427      21.08424523      21.06044421      21.03788541      21.01596751      20.99487028      20.97413610
        20.95379135      20.93330121      20.91166406      20.88825536      20.86322893      20.83692855      20.80988647      20.78210513      20.75286035      20.72152366      20.68866268      20.65465690      20.61961156      20.58388593      20.54754500      20.51057817      20.47337655      20.43617203      20.39885540      20.36119253
        20.32336703      20.28564107      20.24845447      20.21209246      20.17699090      20.14318820      20.11062108      20.07944769      20.04949155      20.02021819      19.99131896      19.96297784      19.93503431      19.90742265      19.88048254      19.85432538      19.82887279      19.80423742      19.78034395      19.75690889
        19.73375745      19.71091652      19.68820479      19.66537419      19.64259412      19.61996068      19.59743800      19.57504455      19.55299867      19.53132346      19.51009480      19.48945319      19.46937111      19.45005544      19.43175260      19.41459849      19.39867682      19.38406003      19.37062603      19.35826059
        19.34682938      19.33624462      19.32649655      19.31769039      19.30990339      19.30311536      19.29719013      19.29201156      19.28748540      19.28351573      19.27998152      19.27675315      19.27371674      19.27078904      19.26791266      19.26502150      19.26210151      19.25915379      19.25617943      19.25314161
        19.24997708      19.24663405      19.24297477      19.23878773      19.23385933      19.22796439      19.22084763      19.21224330      19.20185399      19.18941135      19.17458945      19.15709637      19.13663364      19.11292593      19.08580803      19.05522578      19.02105312      18.98315057      18.94157814      18.89599479
        18.84593558      18.79097644      18.73102840      18.66653136      18.59811025      18.52628603      18.45144704      18.37435277      18.29527837      18.21467200      18.13352800      18.05255398      17.97224253      17.89279654      17.81453440      17.73768977      17.66205721      17.58765119      17.51433543      17.44237442
        17.37236767      17.30440132      17.23806121      17.17288304      17.10836420      17.04383600      16.97931890      16.91516891      16.85154838      16.78851237      16.72575835      16.66246616      16.59762899      16.52958124      16.45709456      16.37962071      16.29658556      16.20664461      16.10826431      16.00000000
        25.00000000      24.69141241      24.38850906      24.10452961      23.84867145      23.62602949      23.43567377      23.27671030      23.14546723      23.03778065      22.95088448      22.88194351      22.82677694      22.78043210      22.74031743      22.70391988      22.66937085      22.63623010      22.60505650      22.57527487
        22.54532797      22.51403768      22.48103005      22.44578871      22.40783095      22.36681204      22.32333823      22.27804259      22.23182764      22.18488702      22.13710753      22.08902668      22.04155113      21.99474246      21.94881076      21.90293735      21.85740246      21.81302988      21.77011280      21.72854845
        21.68842334      21.64981691      21.61289986      21.57866639      21.54705676      21.51767193      21.48958657      21.46246883      21.43535770      21.40782258      21.37946528      21.35033175      21.32016190      21.28981484      21.26018121      21.23151013      21.20371614      21.17622704      21.14955532      21.12395048
        21.09902158      21.07381620      21.04779030      21.02100619      20.99341223      20.96528948      20.93631437      20.90631280      20.87475766      20.84129072      20.80638810      20.77058904      20.73384334      20.69610218      20.65757344      20.61839835      20.57874261      20.53872076      20.49856222      20.45777431
        20.41647223      20.37498123      20.33382547      20.29343335      20.25429297      20.21670370      20.18057082      20.14577116      20.11230629      20.07994805      20.04819187      20.01705849      19.98662359      19.95654900      19.92707317      19.89845271      19.87067096      19.84355623      19.81719296      19.79148611
        19.76630957      19.74169425      19.71753043      19.69356257      19.66968004      19.64595375      19.62239362      19.59901470      19.57597440      19.55329574      19.53112132      19.50958063      19.48872622      19.46864494      19.44954980      19.43158366      19.41485057      19.39940334      19.38515287      19.37205261
        19.35997633      19.34881954      19.33854534      19.32920598      19.32085739      19.31351091      19.30710127      19.30147949      19.29655468      19.29225970      19.28848248      19.28508772      19.28193712      19.27889964      19.27591882      19.27293499      19.26990460      19.26684449      19.26376001      19.26062085
        19.25738678      19.25402717      19.25042606      19.24636706      19.24161955      19.23595356      19.22908258      19.22072313      19.21050840      19.19809711      19.18314684      19.16534425      19.14437270      19.11987481      19.09161214      19.05963844      19.02391794      18.98429892      18.94067274      18.89270761
        18.84018549      18.78298229      18.72090213      18.65419673      18.58346366      18.50908776      18.43187933      18.35272665      18.27175732      18.18969210      18.10745894      18.02534188      17.94364412      17.86294393      17.78387590      17.70652498      17.63060058      17.55636615      17.48391526      17.41302113
        17.34373642      17.27620128      17.21035858      17.14577823      17.08189837      17.01802465      16.95435912      16.89142383      16.82950559      16.76853185      16.70777577      16.64619020      16.58262485      16.51580661      16.44493826      16.36954724      16.28872577      16.20115133      16.10540065      16.00000000
        25.00000000      24.77206730      24.54241765      24.32142742      24.11607967      23.93269793      23.77300284      23.63714114      23.52394193      23.43069719      23.35434493      23.29063198      23.23594277      23.18623402      23.14026278      23.09637844      23.05417309      23.01304979      22.97267468      22.93167461
        22.88842167      22.84325452      22.79699828      22.74950218      22.69986933      22.64970530      22.59920663      22.54712174      22.49269030      22.43761478      22.38234423      22.32772142      22.27384906      22.22072750      22.16828281      22.11681182      22.06627097      22.01752501      21.97080804      21.92621549
        21.88366506      21.84323778      21.80544347      21.77022091      21.73720864      21.70546391      21.67455598      21.64409611      21.61358237      21.58226299      21.55015042      21.51708963      21.48327301      21.44959750      21.41616703      21.38310143      21.35074937      21.31915238      21.28837566      21.25854037
        21.22943848      21.20051715      21.17146083      21.14218952      21.11226367      21.08154007      21.04975136      21.01696805      20.98310304      20.94819900      20.91219405      20.87484793      20.83630548      20.79670237      20.75625153      20.71499569      20.67303516      20.63032001      20.58724086      20.54371611
        20.49945360      20.45482989      20.41031991      20.36649943      20.32405472      20.28327298      20.24402130      20.20614109      20.16968922      20.13452621      20.10032184      20.06678878      20.03405379      20.00207883      19.97069818      19.93992930      19.90986542      19.88052227      19.85194257      19.82413210
        19.79716497      19.77101107      19.74549486      19.72042079      19.69554843      19.67083921      19.64632413      19.62203863      19.59809431      19.57451158      19.55147848      19.52908814      19.50741667      19.48652785      19.46661129      19.44780685      19.43025465      19.41402439      19.39905691      19.38529828
        19.37261798      19.36088501      19.35009943      19.34026431      19.33143511      19.32359365      19.31672159      19.31068864      19.30542767      19.30087828      19.29691869      19.29339774      19.29013896      19.28698439      19.28385625      19.28074179      19.27760315      19.27441170      19.27121017      19.26800603
        19.26473506      19.26133971      19.25776963      19.25383757      19.24930913      19.24393886      19.23740030      19.22935724      19.21938095      19.20704276      19.19195426      19.17376184      19.15211404      19.12663484      19.09690610      19.06306709      19.02522563      18.98317829      18.93681505      18.88597306
        18.83086497      18.77135033      18.70679796      18.63729218      18.56357266      18.48599368      18.40550403      18.32355416      18.24039025      18.15614371      18.07119563      17.98634714      17.90244528      17.82037613      17.74071794      17.66335447      17.58811233      17.51497748      17.44361323      17.37378138
        17.30549180      17.23908593      17.17419298      17.11050396      17.04762937      16.98511152      16.92323980      16.86247312      16.80283678      16.74406195      16.68526657      16.62527990      16.56303982      16.49779117      16.42902259      16.35616771      16.27819587      16.19359394      16.10116550      16.00000000
        25.00000000      24.83902845      24.67295308      24.50976826      24.35497365      24.21300089      24.08823129      23.98126599      23.89022238      23.81351929      23.74758712      23.68854829      23.63345976      23.58167701      23.53219609      23.48380060      23.43518046      23.38400780      23.33032796      23.27482357
        23.21867714      23.16129814      23.10332304      23.04516724      22.98704807      22.92912387      22.87058812      22.81041744      22.74821671      22.68538893      22.62239893      22.56016064      22.49863674      22.43794660      22.37829414      22.32051948      22.26508791      22.21177311      22.16068522      22.11235039
        22.06712551      22.02452258      21.98442002      21.94630252      21.90951229      21.87385503      21.83920018      21.80513691      21.77096695      21.73605221      21.70028042      21.66386790      21.62706304      21.59038487      21.55381174      21.51756224      21.48178068      21.44698205      21.41312121      21.38018324
        21.34799220      21.31632548      21.28471849      21.25277710      21.22036637      21.18708167      21.15291860      21.11822402      21.08310399      21.04697407      21.00977890      20.97124326      20.93123812      20.89004069      20.84777268      20.80455572      20.76047150      20.71572844      20.67023821      20.62402766
        20.57708378      20.52959540      20.48214199      20.43542335      20.38994861      20.34612910      20.30375699      20.26301916      20.22405907      20.18650894      20.15003846      20.11457348      20.07984795      20.04583765      20.01247315      19.97984047      19.94786731      19.91666940      19.88645954      19.85714052
        19.82870157      19.80113600      19.77419909      19.74776363      19.72175679      19.69597699      19.67038831      19.64511152      19.62021539      19.59566434      19.57161249      19.54824818      19.52566034      19.50395700      19.48321113      19.46357791      19.44527616      19.42835796      19.41272925      19.39841419
        19.38522408      19.37291118      19.36156369      19.35121517      19.34192379      19.33366687      19.32641131      19.32008352      19.31457416      19.30978673      19.30561215      19.30188207      19.29843089      19.29514193      19.29189553      19.28864477      19.28537911      19.28206222      19.27872773      19.27539999
        19.27204700      19.26861244      19.26506114      19.26126862      19.25702230      19.25203957      19.24590540      19.23821233      19.22852927      19.21628056      19.20096588      19.18221397      19.15960996      19.13270426      19.10097725      19.06450546      19.02379251      18.97878688      18.92936042      18.87553618
        18.81757142      18.75488876      18.68683766      18.61376293      18.53622293      18.45456745      18.37016317      18.28429008      18.19694915      18.10847663      18.01995814      17.93256942      17.84716047      17.76439818      17.68475055      17.60827581      17.53453519      17.46301062      17.39337954      17.32554215
        17.25911371      17.19402595      17.13015523      17.06761337      17.00617965      16.94570710      16.88636451      16.82811208      16.77076148      16.71373458      16.65640059      16.59807307      16.53786270      16.47500373      16.40894202      16.33914981      16.26463402      16.18411244      16.09627386      16.00000000
        25.00000000      24.89797959      24.78930700      24.67976266      24.57437818      24.47663329      24.38831324      24.31099610      24.24339910      24.18299109      24.12724490      24.07457730      24.02229489      23.97049163      23.91717653      23.86031812      23.79945518      23.73471513      23.66698059      23.59836131
        23.53046780      23.46346818      23.39703305      23.33032509      23.26377809      23.19715348      23.12993664      23.06213887      22.99367816      22.92390442      22.85344051      22.78288425      22.71290183      22.64405997      22.57706033      22.51239368      22.45100647      22.39281198      22.33771043      22.28592176
        22.23719967      22.19102882      22.14661980      22.10430006      22.06376341      22.02473570      21.98689027      21.94946564      21.91173165      21.87337842      21.83452726      21.79552637      21.75592591      21.71609527      21.67677584      21.63836818      21.60054259      21.56353296      21.52739237      21.49195935
        21.45692704      21.42229148      21.38782194      21.35337032      21.31877166      21.28401331      21.24872440      21.21296885      21.17691067      21.13979014      21.10132750      21.06164098      21.02057209      20.97810260      20.93441634      20.88969184      20.84385957      20.79711742      20.74948249      20.70093176
        20.65170237      20.60188772      20.55165073      20.50184680      20.45334061      20.40666368      20.36176403      20.31844287      20.27700226      20.23740932      20.19897426      20.16152951      20.12499875      20.08918959      20.05404693      20.01976534      19.98641540      19.95396147      19.92249132      19.89195686
        19.86226152      19.83336875      19.80501708      19.77710069      19.74964974      19.72257224      19.69569972      19.66909555      19.64289430      19.61710459      19.59188915      19.56745780      19.54381229      19.52114079      19.49961536      19.47933987      19.46036956      19.44280513      19.42660597      19.41189326
        19.39829744      19.38528512      19.37336218      19.36250496      19.35276835      19.34414356      19.33656571      19.32995196      19.32421783      19.31920990      19.31477730      19.31079187      19.30711437      19.30361663      19.30017599      19.29675774      19.29333313      19.28984804      19.28633850      19.28283722