# File generated by Flopy version 3.6.0 on 03/13/2025 at 13:17:49.
BEGIN options
END options

BEGIN dimensions
  MAXBOUND  5
END dimensions

BEGIN period  1
  1 1932 0.00000000E+00
  1 7411 0.00000000E+00
  1 13734 0.00000000E+00
  1 19589 -2.00000000E-02
  1 26933 -1.40000000E-01
END period  1

