# File generated by Flopy version 3.6.0 on 03/18/2025 at 15:16:58.
BEGIN options
  SAVE_FLOWS
END options

BEGIN griddata
  iconvert
    CONSTANT  1
  ss
    CONSTANT       0.00100000
  sy
    CONSTANT       0.20000000
END griddata

BEGIN period  1
  TRANSIENT
END period  1

