# File generated by Flopy version 3.6.0 on 03/12/2025 at 15:42:07.
BEGIN griddata
  strt
    INTERNAL  FACTOR  1.0
        25.00000000      23.29142640      22.35623015      21.78516420      21.41513896      21.16600230      20.99294075      20.87047199      20.78275014      20.72076202      20.67684691      20.64702629      20.62759523      20.61760816      20.61365770      20.61374347      20.61753868      20.62597604      20.63881578      20.65403954
        20.67050456      20.68819895      20.70661663      20.72520260      20.74299937      20.75680916      20.76615039      20.77125404      20.77246101      20.77003715      20.76559212      20.75876380      20.74979665      20.73889346      20.72615736      20.71201620      20.69659101      20.67943620      20.66079127      20.64066276
        20.61905451      20.59657676      20.57365513      20.54999667      20.52365546      20.49380221      20.46183101      20.42860813      20.39489680      20.36207986      20.33204631      20.30478063      20.28089404      20.26015995      20.24221494      20.22664789      20.21276818      20.19975409      20.18740136      20.17550731
        20.16356364      20.15210834      20.14169291      20.13235882      20.12346371      20.11328009      20.10123812      20.08767271      20.07158420      20.05393971      20.03456963      20.01346813      19.99068888      19.96715709      19.94337343      19.91923913      19.89483538      19.87082288      19.84693194      19.82354635
        19.80201216      19.78239961      19.76389330      19.74675684      19.73124033      19.71718560      19.70361910      19.69074020      19.67866677      19.66681661      19.65522946      19.64425101      19.63353037      19.62327579      19.61313114      19.60300844      19.59228117      19.58099552      19.56888808      19.55614555
        19.54292273      19.52938148      19.51500623      19.50005486      19.48453354      19.46862243      19.45211134      19.43519281      19.41807861      19.40061579      19.38313129      19.36574995      19.34873115      19.33231522      19.31695732      19.30298483      19.29049341      19.27930321      19.26922266      19.26036754
        19.25265994      19.24603099      19.24041929      19.23583181      19.23212209      19.22924277      19.22701991      19.22525370      19.22392416      19.22287660      19.22197796      19.22109536      19.22015606      19.21918234      19.21815843      19.21707409      19.21589891      19.21457669      19.21307406      19.21131758
        19.20931619      19.20690856      19.20390929      19.20017608      19.19554312      19.18987341      19.18298033      19.17467122      19.16476311      19.15301685      19.13924053      19.12330659      19.10504138      19.08425704      19.06076081      19.03446352      19.00497616      18.97136086      18.93340614      18.89104879
        18.84452512      18.79359301      18.73803471      18.67827010      18.61493824      18.54830119      18.47846590      18.40612240      18.33153884      18.25450581      18.17567041      18.09616921      18.01638651      17.93652834      17.85749635      17.77961096      17.70286057      17.62745646      17.55332776      17.48065554
        17.40974979      17.34075430      17.27308752      17.20633327      17.14045568      17.07483495      17.00946172      16.94460534      16.87995431      16.81510190      16.74954480      16.68291921      16.61480466      16.54413400      16.46959492      16.39015080      16.30482373      16.21236462      16.11137919      16.00000000
        25.00000000      23.91432517      23.10250615      22.52755057      22.11895895      21.82708139      21.61570611      21.46067228      21.34619683      21.26261015      21.20127732      21.15619225      21.12327545      21.09834322      21.07941979      21.06781417      21.06264238      21.06277764      21.06737344      21.07490847
        21.08437219      21.09494246      21.10474562      21.11374468      21.11951007      21.12100007      21.11817451      21.11109365      21.09986570      21.08582186      21.07030173      21.05346282      21.03505047      21.01513029      20.99381576      20.97189945      20.94879070      20.92429926      20.89838480      20.87155621
        20.84488741      20.81843699      20.79184310      20.76409699      20.73457507      20.70339619      20.67111969      20.63881389      20.60746159      20.57765366      20.55001171      20.52418873      20.50050799      20.47948837      20.46106330      20.44479917      20.43080905      20.41881848      20.40829858      20.39929585
        20.39055419      20.38119015      20.37096417      20.35949341      20.34691327      20.33331484      20.31785648      20.29998180      20.27912602      20.25558777      20.23004589      20.20310236      20.17487777      20.14579283      20.11653463      20.08747466      20.05883199      20.03072055      20.00304939      19.97581174
        19.94979909      19.92569877      19.90329060      19.88235125      19.86277869      19.84434741      19.82671379      19.80969898      19.79307171      19.77666905      19.76023035      19.74377989      19.72739749      19.71123343      19.69528836      19.67958864      19.66399584      19.64847788      19.63286824      19.61686843
        19.60055259      19.58392069      19.56686992      19.54930738      19.53119353      19.51247004      19.49342602      19.47418179      19.45490959      19.43564608      19.41649833      19.39768492      19.37941053      19.36189955      19.34534367      19.33003292      19.31614033      19.30359957      19.29230208      19.28220421
        19.27329046      19.26548374      19.25875038      19.25305831      19.24833245      19.24445223      19.24131115      19.23876863      19.23673804      19.23509952      19.23372243      19.23246035      19.23120779      19.22990242      19.22849753      19.22699898      19.22543352      19.22376860      19.22197811      19.22002510
        19.21784921      19.21531947      19.21221804      19.20838533      19.20365768      19.19785929      19.19080812      19.18232176      19.17221567      19.16021999      19.14608090      19.12959038      19.11063486      19.08908505      19.06470610      19.03734564      19.00676884      18.97248707      18.93407989      18.89136605
        18.84447791      18.79331880      18.73759290      18.67753302      18.61378811      18.54656068      18.47612553      18.40305840      18.32755643      18.24988614      18.17108869      18.09166979      18.01174713      17.93189075      17.85299989      17.77548227      17.69903544      17.62366253      17.54968111      17.47721807
        17.40638854      17.33730452      17.26975617      17.20330568      17.13747866      17.07193601      17.00681042      16.94206805      16.87734409      16.81253539      16.74727927      16.68108144      16.61349664      16.54328846      16.46896909      16.38975931      16.30459999      16.21215774      16.11129797      16.00000000
        25.00000000      24.24709562      23.60044463      23.08874931      22.69570431      22.39660150      22.16943363      21.99562058      21.86190572      21.75929257      21.68036262      21.61851015      21.56921067      21.53103029      21.50349738      21.48646486      21.47711260      21.47255591      21.47063238      21.47114441
        21.47228723      21.47261864      21.47156250      21.46838948      21.46151059      21.45138644      21.43749104      21.42054581      21.40118068      21.37947716      21.35512252      21.32845117      21.30070104      21.27248812      21.24372905      21.21456137      21.18512378      21.15508647      21.12452293      21.09405047
        21.06355406      21.03262650      21.00129475      20.96927834      20.93747926      20.90648551      20.87640457      20.84669122      20.81789027      20.78990965      20.76305695      20.73746846      20.71376785      20.69252979      20.67368105      20.65665903      20.64128995      20.62853399      20.61741036      20.60713915
        20.59705974      20.58575292      20.57286125      20.55841573      20.54214022      20.52379079      20.50309723      20.48020701      20.45528980      20.42850628      20.40008152      20.37014573      20.33915111      20.30698859      20.27403052      20.24151113      20.20955382      20.17830383      20.14756713      20.11725131
        20.08740839      20.05872060      20.03158056      20.00571876      19.98091433      19.95719446      19.93471992      19.91289976      19.89136614      19.87011576      19.84880551      19.82727026      19.80580635      19.78478435      19.76439874      19.74461351      19.72533323      19.70631641      19.68742644      19.66830223
        19.64903070      19.62963658      19.60991130      19.58976889      19.56933279      19.54859068      19.52763258      19.50669459      19.48586400      19.46515559      19.44467902      19.42460265      19.40514913      19.38652071      19.36889489      19.35244473      19.33739826      19.32380149      19.31153840      19.30051366
        19.29065045      19.28188088      19.27419130      19.26757940      19.26198719      19.25731854      19.25349917      19.25038737      19.24785183      19.24578644      19.24406046      19.24250507      19.24098188      19.23941809      19.23775132      19.23598484      19.23415839      19.23228918      19.23032941      19.22821836
        19.22588697      19.22325920      19.22013585      19.21630622      19.21159578      19.20579823      19.19873412      19.19015757      19.17990595      19.16770783      19.15328280      19.13640042      19.11690824      19.09463305      19.06939398      19.04107770      19.00944293      18.97412549      18.93494871      18.89170822
        18.84428193      18.79245715      18.73595819      18.67495628      18.61008296      18.54170606      18.47024400      18.39614928      18.31968982      18.24152535      18.16233614      18.08238060      18.00214674      17.92239087      17.84382599      17.76669160      17.69065011      17.61561635      17.54182331      17.46946459
        17.39868831      17.32965746      17.26238247      17.19633605      17.13086998      17.06560347      17.00050740      16.93566363      16.87106105      16.80674020      16.74206657      16.67660734      16.60972514      16.53990602      16.46604776      16.38732422      16.30270795      16.21089799      16.11064743      16.00000000
        25.00000000      24.44994052      23.94447962      23.51319641      23.15986868      22.87547927      22.64885150      22.46953493      22.32666761      22.21173906      22.11886262      22.04366304      21.98477375      21.94140077      21.91182646      21.89138355      21.87678648      21.86533041      21.85482375      21.84490561
        21.83580631      21.82689296      21.81615876      21.80210837      21.78524814      21.76571793      21.74290931      21.71721267      21.68921159      21.65878539      21.62584071      21.59102457      21.55538895      21.51985183      21.48430188      21.44865347      21.41322102      21.37803767      21.34352975      21.30930352
        21.27450802      21.23922349      21.20421811      21.17033926      21.13841710      21.10865239      21.08060113      21.05314772      21.02637819      20.99952462      20.97309610      20.94772022      20.92378251      20.90147928      20.88067229      20.86109959      20.84286727      20.82657237      20.81160851      20.79659472
        20.78157831      20.76607123      20.74918354      20.73016869      20.70896487      20.68581551      20.66096149      20.63489659      20.60757587      20.57883542      20.54865325      20.51672805      20.48353617      20.44951498      20.41488699      20.38020522      20.34570815      20.31162286      20.27789483      20.24429747
        20.21057306      20.17717994      20.14474759      20.11351736      20.08355323      20.05469043      20.02694496      20.00020554      19.97420444      19.94853427      19.92308245      19.89776506      19.87258780      19.84788232      19.82385717      19.80045082      19.77766175      19.75536134      19.73346238      19.71178137
        19.69011319      19.66842041      19.64653686      19.62429167      19.60194079      19.57958074      19.55712732      19.53473129      19.51257598      19.49063914      19.46901818      19.44785482      19.42725086      19.40752579      19.38889807      19.37152996      19.35558269      19.34115481      19.32812105      19.31637770
        19.30575632      19.29617208      19.28762082      19.28020686      19.27391340      19.26864194      19.26427042      19.26068357      19.25774616      19.25532590      19.25329305      19.25147844      19.24973553      19.24799294      19.24621357      19.24436059      19.24242570      19.24042299      19.23834751      19.23611799
        19.23366128      19.23093677      19.22779392      19.22399210      19.21934563      19.21362710      19.20662913      19.19809423      19.18779596      19.17549851      19.16093441      19.14382052      19.12385505      19.10084623      19.07466223      19.04525726      19.01246590      18.97595752      18.93568298      18.89149811
        18.84312023      18.79010976      18.73226911      18.66988925      18.60351882      18.53366426      18.46078071      18.38532725      18.30754381      18.22815799      18.14804178      18.06758120      17.98731222      17.90782087      17.82958651      17.75268724      17.67679197      17.60208515      17.52858208      17.45624295
        17.38540877      17.31661019      17.24974586      17.18412388      17.11902665      17.05402101      16.98913632      16.92445440      16.86017185      16.79634008      16.73237614      16.66786409      16.60212157      16.53347938      16.46060719      16.38261579      16.29895958      16.20856653      16.10957057      16.00000000
        25.00000000      24.58797055      24.19465131      23.84058966      23.53446486      23.27690915      23.06330550      22.88917365      22.74733757      22.63148104      22.53695227      22.46069362      22.40170847      22.35783423      22.32482991      22.29820345      22.27430797      22.25177110      22.23070099      22.21044554
        22.19173525      22.17302501      22.15227888      22.12850673      22.10236796      22.07242711      22.03883868      22.00244022      21.96443396      21.92450647      21.88349251      21.84213618      21.80018273      21.75819608      21.71701054      21.67630424      21.63587819      21.59578047      21.55652117      21.51795393
        21.47972941      21.44210622      21.40587605      21.37177216      21.34017751      21.31111207      21.28360857      21.25721569      21.23133848      21.20541586      21.17914314      21.15295487      21.12675395      21.10076027      21.07565817      21.05173054      21.02904470      21.00700833      20.98580811      20.96498603
        20.94456785      20.92402038      20.90234635      20.87892543      20.85391176      20.82765233      20.80067948      20.77299909      20.74388423      20.71270398      20.68002203      20.64621857      20.61140147      20.57592471      20.53985543      20.50318615      20.46630075      20.42942328      20.39243419      20.35508614
        20.31755332      20.28009730      20.24315624      20.20701240      20.17210369      20.13846784      20.10603784      20.07496906      20.04508220      20.01583730      19.98692115      19.95851093      19.93044201      19.90264845      19.87547010      19.84901577      19.82320054      19.79812756      19.77371781      19.74968371
        19.72585182      19.70225401      19.67870421      19.65494213      19.63113385      19.60737906      19.58364246      19.55995174      19.53654044      19.51343748      19.49074488      19.46863509      19.44711589      19.42644024      19.40690811      19.38869767      19.37193322      19.35671485      19.34292961      19.33046203
        19.31916175      19.30892402      19.29972262      19.29163954      19.28472218      19.27892116      19.27407534      19.27005186      19.26673096      19.26398810      19.26168042      19.25965631      19.25778685      19.25597382      19.25415713      19.25226217      19.25026677      19.24817399      19.24597921      19.24364793
        19.24112196      19.23835417      19.23521019      19.23148006      19.22694998      19.22139483      19.21456387      19.20619424      19.19599079      19.18368888      19.16896753      19.15153920      19.13110996      19.10741210      19.08029091      19.04970336      19.01552915      18.97763341      18.93608616      18.89054996
        18.84055189      18.78566075      18.72578342      18.66135773      18.59300343      18.52124029      18.44645250      18.36938370      18.29029664      18.20963781      18.12840393      18.04730739      17.96684170      17.88720939      17.80872891      17.73164532      17.65576236      17.58110767      17.50754451      17.43533950
        17.36510168      17.29692348      17.23039872      17.16506114      17.10040457      17.03576357      16.97117236      16.90700810      16.84345858      16.78059778      16.71813407      16.65525233      16.59096113      16.52360520      16.45196540      16.37548636      16.29357165      16.20481161      16.10752125      16.00000000
        25.00000000      24.69076441      24.38695407      24.10208420      23.84548830      23.62230769      23.43162835      23.27254921      23.14137319      23.03389376      22.94731365      22.87877555      22.82407819      22.77823156      22.73860964      22.70265847      22.66846975      22.63559436      22.60459642      22.57490236
        22.54495522      22.51358151      22.48041462      22.44494081      22.40668330      22.36531307      22.32145444      22.27574929      22.22911096      22.18174460      22.13354673      22.08506460      22.03720610      21.99003759      21.94377232      21.89759189      21.85177864      21.80714957      21.76399284      21.72220462
        21.68186957      21.64306084      21.60594826      21.57152033      21.53971454      21.51012760      21.48184283      21.45453432      21.42723636      21.39951636      21.37097907      21.34167799      21.31135462      21.28086252      21.25109272      21.22229239      21.19437417      21.16676810      21.13999585      21.11430571
        21.08930773      21.06405117      21.03799510      21.01120165      20.98362014      20.95553521      20.92662781      20.89672731      20.86530676      20.83200186      20.79728704      20.76169800      20.72518874      20.68770731      20.64946023      20.61059083      20.57126133      20.53157700      20.49175853      20.45130187
        20.41031022      20.36910389      20.32820861      20.28804969      20.24911572      20.21170573      20.17572219      20.14103835      20.10765279      20.07533160      20.04356563      20.01237067      19.98181644      19.95156358      19.92184928      19.89292821      19.86477819      19.83721983      19.81033514      19.78402523
        19.75816425      19.73278375      19.70776538      19.68284112      19.65789753      19.63300691      19.60818502      19.58345738      19.55899143      19.53482140      19.51111896      19.48804827      19.46569969      19.44421035      19.42385092      19.40481169      19.38723426      19.37119721      19.35661354      19.34342561
        19.33148922      19.32068756      19.31097198      19.30237420      19.29492274      19.28859947      19.28331032      19.27888552      19.27521122      19.27219106      19.26968634      19.26754278      19.26560650      19.26372518      19.26183620      19.25987567      19.25779503      19.25561039      19.25332325      19.25090765
        19.24832574      19.24554894      19.24246854      19.23887108      19.23452462      19.22919956      19.22261283      19.21448498      19.20445040      19.19217246      19.17731515      19.15957222      19.13863147      19.11414316      19.08587970      19.05390851      19.01820278      18.97861339      18.93503755      18.88714823
        18.83472105      18.77761874      18.71563706      18.64902657      18.57837997      18.50407941      18.42693544      18.34782158      18.26684927      18.18473583      18.10241129      18.02016640      17.93830731      17.85741564      17.77812603      17.70053111      17.62435008      17.54986037      17.47716219      17.40602492
        17.33650698      17.26875584      17.20272173      17.13797579      17.07395552      17.00996570      16.94622102      16.88326509      16.82140717      16.76059674      16.70012020      16.63893967      16.57591997      16.50980199      16.43979244      16.36540500      16.28571045      16.19932556      16.10466845      16.00000000
        25.00000000      24.77143773      24.54089669      24.31903727      24.11298612      23.92912424      23.76919554      23.63334577      23.52038375      23.42755555      23.35175211      23.28868382      23.23469554      23.18569486      23.14040147      23.09711256      23.05538187      23.01459533      22.97441873      22.93347615
        22.89013948      22.84476688      22.79820526      22.75031954      22.70021493      22.64952483      22.59847129      22.54581028      22.49078865      22.43512884      22.37929443      22.32413848      22.26976506      22.21617945      22.16330995      22.11145251      22.06056336      22.01150097      21.96449785      21.91964357
        21.87685165      21.83619581      21.79818142      21.76274459      21.72952223      21.69756804      21.66645399      21.63580037      21.60510075      21.57359930      21.54130850      21.50807874      21.47410538      21.44028031      21.40671027      21.37351365      21.34103778      21.30932261      21.27844275      21.24852198
        21.21935369      21.19038336      21.16129660      21.13201429      21.10209963      21.07141251      21.03969148      21.00700972      20.97328055      20.93854014      20.90272623      20.86559594      20.82729570      20.78795909      20.74779732      20.70685229      20.66522371      20.62285346      20.58012389      20.53694320
        20.49300426      20.44867633      20.40443777      20.36086282      20.31863572      20.27804311      20.23895092      20.20119651      20.16483320      20.12971664      20.09550984      20.06192269      20.02907552      19.99692739      19.96531027      19.93424127      19.90380998      19.87402722      19.84492918      19.81651613
        19.78886146      19.76193044      19.73553599      19.70947598      19.68350876      19.65759793      19.63177997      19.60609339      19.58066060      19.55551995      19.53089207      19.50691272      19.48370171      19.46137832      19.44018479      19.42030308      19.40190768      19.38509194      19.36979096      19.35593980
        19.34339670      19.33202257      19.32180472      19.31272653      19.30481465      19.29802449      19.29230895      19.28751690      19.28355732      19.28033640      19.27770025      19.27547684      19.27347092      19.27150822      19.26950705      19.26744499      19.26527717      19.26297815      19.26058802      19.25811854
        19.25551016      19.25270470      19.24965714      19.24618501      19.24205542      19.23702265      19.23076201      19.22294152      19.21313397      19.20091651      19.18590872      19.16776639      19.14614433      19.12067335      19.09094645      19.05711674      19.01930476      18.97730943      18.93102233      18.88028435
        18.82530609      18.76592803      18.70150658      18.63212265      18.55851193      18.48102695      18.40061560      18.31872038      18.23556674      18.15127965      18.06624153      17.98126101      17.89718949      17.81492077      17.73503698      17.65742515      17.58192207      17.50852579      17.43691040      17.36683416
        17.29830951      17.23168593      17.16659623      17.10273680      17.03971825      16.97708319      16.91512993      16.85433623      16.79475144      16.73612935      16.67760372      16.61801832      16.55632690      16.49178911      16.42388998      16.35204863      16.27520776      16.19179584      16.10045655      16.00000000
        25.00000000      24.83846568      24.67156174      24.50759164      24.35220428      24.20989728      24.08509227      23.97839162      23.88788370      23.81194655      23.74692748      23.68888664      23.63482402      23.58404870      23.53550315      23.48790935      23.43989633      23.38909459      23.33555243      23.27997355
        23.22357805      23.16578961      23.10727558      23.04848326      22.98964525      22.93094437      22.87159928      22.81060544      22.74757973      22.68394629      22.62018668      22.55722930      22.49504234      22.43374752      22.37354746      22.31528138      22.25941253      22.20570913      22.15427653      22.10563447
        22.06013126      22.01727095      21.97692507      21.93857869      21.90157040      21.86570175      21.83083879      21.79657832      21.76222492      21.72713203      21.69118528      21.65460308      21.61763749      21.58080664      21.54409039      21.50770740      21.47179991      21.43688150      21.40291272      21.36988589
        21.33762652      21.30590945      21.27426989      21.24231661      21.20991556      21.17666545      21.14256679      21.10796934      21.07298104      21.03701452      21.00001168      20.96169492      20.92193504      20.88100817      20.83903384      20.79613146      20.75238222      20.70798779      20.66285102      20.61699280
        20.57038361      20.52320258      20.47603085      20.42956784      20.38432067      20.34069983      20.29849673      20.25789495      20.21903275      20.18153811      20.14507391      20.10956227      20.07473263      20.04055677      20.00696341      19.97403917      19.94170752      19.91007654      19.87935221      19.84943144
        19.82029806      19.79193914      19.76410026      19.73665274      19.70952480      19.68250980      19.65556887      19.62882977      19.60238178      19.57621186      19.55051415      19.52552571      19.50138093      19.47823329      19.45619765      19.43547458      19.41632023      19.39879964      19.38281819      19.36839480
        19.35533081      19.34337937      19.33260640      19.32302921      19.31467272      19.30749088      19.30142699      19.29638686      19.29223309      19.28883279      19.28603722      19.28365239      19.28149520      19.27943286      19.27734291      19.27517086      19.27289720      19.27048623      19.26797587      19.26539422
        19.26270784      19.25986211      19.25683094      19.25349380      19.24963943      19.24498565      19.23911663      19.23162796      19.22209400      19.20994517      19.19469070      19.17597267      19.15338596      19.12648640      19.09476558      19.05831351      19.01764902      18.97272331      18.92340329      18.86971202
        18.81190809      18.74939740      18.68151202      18.60858740      18.53118313      18.44964373      18.36533166      18.27952956      18.19221624      18.10371423      18.01511035      17.92758650      17.84200040      17.75902923      17.67915077      17.60242382      17.52841973      17.45662808      17.38673868      17.31865593
        17.25199054      17.18668205      17.12261042      17.05989483      16.99831376      16.93772410      16.87830022      16.82001679      16.76271319      16.70583111      16.64876368      16.59083981      16.53118328      16.46904356      16.40386101      16.33509216      16.26170860      16.18236384      16.09559376      16.00000000
        25.00000000      24.89755667      24.78820057      24.67804669      24.57230015      24.47452153      24.38653686      24.30992214      24.24335394      24.18424304      24.12994949      24.07880890      24.02803772      23.97767473      23.92562270      23.86974602      23.80951496      23.74505410      23.67727590      23.60834254
        23.53992251      23.47220964      23.40490633      23.33720040      23.26956285      23.20178853      23.13339658      23.06443274      22.99483263      22.92395650      22.85244770      22.78092268      22.71005785      22.64042165      22.57271453      22.50742153      22.44548403      22.38681099      22.33129248      22.27914126
        22.23009773      22.18363984      22.13896782      22.09640611      22.05564293      22.01639942      21.97834322      21.94071814      21.90280171      21.86427512      21.82525189      21.78608081      21.74631683      21.70633115      21.66686476      21.62832005      21.59036468      21.55323208      21.51697831      21.48145165
        21.44634832      21.41166144      21.37715862      21.34269326      21.30810088      21.27337212      21.23814095      21.20247513      21.16654220      21.12958249      21.09131212      21.05184673      21.01102411      20.96882574      20.92543421      20.88102549      20.83552890      20.78913683      20.74185751      20.69366270
        20.64477739      20.59528031      20.54533513      20.49579805      20.44753011      20.40106119      20.35633891      20.31316370      20.27183135      20.23230327      20.19388390      20.15640135      20.11977688      20.08381493      20.04845650      20.01389353      19.98019270      19.94731098      19.91532970      19.88419529
        19.85380250      19.82410870      19.79484327      19.76589433      19.73729186      19.70893702      19.68065829      19.65253617      19.62473658      19.59729322      19.57040804      19.54433258      19.51910725      19.49496692      19.47213085      19.45074356      19.43089107      19.41269493      19.39611892      19.38127135
        19.36777381      19.35513908      19.34378827      19.33371691      19.32493569      19.31741588      19.31107204      19.30580021      19.30147587      19.29790687      19.29490408      19.29230950      19.28997157      19.28774569      19.28549613      19.28318005      19.28076507      19.27819808      19.27551799      19.27276422