# File generated by Flopy version 3.6.0 on 03/12/2025 at 15:42:01.
BEGIN options
END options

BEGIN dimensions
  MAXBOUND  29069
END dimensions

BEGIN period  1
  1 1 1.41780519E-08
  1 2 1.39050416E-08
  1 3 1.41422984E-08
  1 4 1.46972935E-08
  1 5 1.51271995E-08
  1 6 1.56443211E-08
  1 7 1.58009028E-08
  1 8 1.53983846E-08
  1 9 1.50153485E-08
  1 10 1.42590390E-08
  1 11 1.32917599E-08
  1 12 1.26379703E-08
  1 13 1.23219811E-08
  1 14 1.17522696E-08
  1 15 1.11636826E-08
  1 16 1.06381991E-08
  1 17 9.95635546E-09
  1 18 9.73702339E-09
  1 19 9.75760093E-09
  1 20 1.01516285E-08
  1 21 1.10493674E-08
  1 22 1.16316868E-08
  1 23 1.19131926E-08
  1 24 1.28273231E-08
  1 25 1.40494099E-08
  1 26 1.47630626E-08
  1 27 1.48707196E-08
  1 28 1.49411409E-08
  1 29 1.45699065E-08
  1 30 1.40669909E-08
  1 31 1.38173162E-08
  1 32 1.34928795E-08
  1 33 1.37195590E-08
  1 34 1.40025398E-08
  1 35 1.47436744E-08
  1 36 1.55768029E-08
  1 37 1.65799661E-08
  1 38 1.73744862E-08
  1 39 1.84074225E-08
  1 40 1.93843745E-08
  1 41 2.03825919E-08
  1 42 2.15676019E-08
  1 43 2.23550461E-08
  1 44 2.27630444E-08
  1 45 2.31838075E-08
  1 46 2.34727337E-08
  1 47 2.37106550E-08
  1 48 2.37024245E-08
  1 49 2.34044347E-08
  1 50 2.32594212E-08
  1 51 2.33902404E-08
  1 52 2.32267045E-08
  1 53 2.32478506E-08
  1 54 2.37174516E-08
  1 55 2.43197667E-08
  1 56 2.47379600E-08
  1 57 2.51278086E-08
  1 58 2.58740412E-08
  1 59 2.65970340E-08
  1 60 2.75278643E-08
  1 61 2.83537755E-08
  1 62 2.91183040E-08
  1 63 2.95848806E-08
  1 64 3.00573921E-08
  1 65 3.01556628E-08
  1 66 3.01921845E-08
  1 67 3.02168544E-08
  1 68 2.97894874E-08
  1 69 2.90177368E-08
  1 70 2.76842135E-08
  1 71 2.63443539E-08
  1 72 2.45079028E-08
  1 73 2.23504992E-08
  1 74 2.07148509E-08
  1 75 1.92769894E-08
  1 76 1.80502492E-08
  1 77 1.69632201E-08
  1 78 1.58880291E-08
  1 79 1.46938138E-08
  1 80 1.34032159E-08
  1 81 1.24561681E-08
  1 82 1.13623275E-08
  1 83 1.01791539E-08
  1 84 9.50594558E-09
  1 85 8.93291735E-09
  1 86 8.71596280E-09
  1 87 8.79533661E-09
  1 88 9.36149929E-09
  1 89 9.91810479E-09
  1 90 1.01072317E-08
  1 91 1.01265281E-08
  1 92 9.88886116E-09
  1 93 1.00669304E-08
  1 94 1.03932329E-08
  1 95 1.11653795E-08
  1 96 1.19768447E-08
  1 97 1.23253174E-08
  1 98 1.26537496E-08
  1 99 1.32954933E-08
  1 100 1.38033882E-08
  1 101 1.42462697E-08
  1 102 1.47264157E-08
  1 103 1.50099829E-08
  1 104 1.54051363E-08
  1 105 1.58485192E-08
  1 106 1.66367671E-08
  1 107 1.74584836E-08
  1 108 1.85170540E-08
  1 109 1.96546781E-08
  1 110 2.02852800E-08
  1 111 2.09001508E-08
  1 112 2.14976495E-08
  1 113 2.24900385E-08
  1 114 2.35415019E-08
  1 115 2.42709907E-08
  1 116 2.52482657E-08
  1 117 2.59235542E-08
  1 118 2.63311647E-08
  1 119 2.62915933E-08
  1 120 2.62066991E-08
  1 121 2.55605150E-08
  1 122 2.47171809E-08
  1 123 2.37918636E-08
  1 124 2.31551629E-08
  1 125 2.22379147E-08
  1 126 2.17207222E-08
  1 127 2.13790504E-08
  1 128 2.09437902E-08
  1 129 2.08829907E-08
  1 130 2.08091265E-08
  1 131 2.09085836E-08
  1 132 2.05790203E-08
  1 133 1.96524749E-08
  1 134 1.91969875E-08
  1 135 1.84561945E-08
  1 136 1.77250792E-08
  1 137 1.74006463E-08
  1 138 1.70046151E-08
  1 139 1.68383821E-08
  1 140 1.68016431E-08
  1 141 1.78797536E-08
  1 142 1.90340262E-08
  1 143 1.98646367E-08
  1 144 2.06080101E-08
  1 145 2.09290286E-08
  1 146 2.15424995E-08
  1 147 2.19158077E-08
  1 148 2.21221459E-08
  1 149 2.19300648E-08
  1 150 2.13868091E-08
  1 151 2.03931175E-08
  1 152 1.92421709E-08
  1 153 1.80151056E-08
  1 154 1.68428735E-08
  1 155 1.60452489E-08
  1 156 1.55490509E-08
  1 157 1.51858985E-08
  1 158 1.49873164E-08
  1 159 1.45696406E-08
  1 160 1.38944005E-08
  1 161 1.29307474E-08
  1 162 1.20910295E-08
  1 163 1.08296534E-08
  1 164 1.00990910E-08
  1 165 9.69957278E-09
  1 166 9.38557179E-09
  1 167 9.03560861E-09
  1 168 8.76301605E-09
  1 169 8.69096220E-09
  1 170 9.18128077E-09
  1 171 1.03060991E-08
  1 172 1.14251687E-08
  1 173 1.22938866E-08
  1 174 1.28177345E-08
  1 175 1.33242920E-08
  1 176 1.39305649E-08
  1 177 1.46427964E-08
  1 178 1.52765140E-08
  1 179 1.52458728E-08
  1 180 1.53294827E-08
  1 181 1.58646917E-08
  1 182 1.67500058E-08
  1 183 1.76702910E-08
  1 184 1.81697676E-08
  1 185 1.83499828E-08
  1 186 1.82315221E-08
  1 187 1.81625965E-08
  1 188 1.83847757E-08
  1 189 1.92222207E-08
  1 190 2.01560122E-08
  1 191 2.12012028E-08
  1 192 2.21437433E-08
  1 193 2.28858717E-08
  1 194 2.32479394E-08
  1 195 2.31994175E-08
  1 196 2.36048905E-08
  1 197 2.37948741E-08
  1 198 2.39011786E-08
  1 199 2.41444439E-08
  1 200 2.46974145E-08
  1 201 1.43328490E-08
  1 202 1.40727428E-08
  1 203 1.40754161E-08
  1 204 1.46861928E-08
  1 205 1.51608053E-08
  1 206 1.56089066E-08
  1 207 1.60175228E-08
  1 208 1.58258791E-08
  1 209 1.53782670E-08
  1 210 1.47410412E-08
  1 211 1.37732498E-08
  1 212 1.30059335E-08
  1 213 1.24763649E-08
  1 214 1.20712647E-08
  1 215 1.14821353E-08
  1 216 1.09665374E-08
  1 217 1.03864073E-08
  1 218 1.00336419E-08
  1 219 9.97721319E-09
  1 220 1.01858777E-08
  1 221 1.09845438E-08
  1 222 1.18972340E-08
  1 223 1.22197011E-08
  1 224 1.28752719E-08
  1 225 1.40546798E-08
  1 226 1.50665037E-08
  1 227 1.52665350E-08
  1 228 1.53002701E-08
  1 229 1.50971762E-08
  1 230 1.45255342E-08
  1 231 1.42031937E-08
  1 232 1.38646688E-08
  1 233 1.39506939E-08
  1 234 1.41167388E-08
  1 235 1.45103380E-08
  1 236 1.54214155E-08
  1 237 1.64168878E-08
  1 238 1.71313988E-08
  1 239 1.81419763E-08
  1 240 1.90963719E-08
  1 241 2.01077931E-08
  1 242 2.12897860E-08
  1 243 2.22411112E-08
  1 244 2.27493541E-08
  1 245 2.29966097E-08
  1 246 2.34007684E-08
  1 247 2.37598805E-08
  1 248 2.38936418E-08
  1 249 2.36364621E-08
  1 250 2.32944248E-08
  1 251 2.34532718E-08
  1 252 2.34029760E-08
  1 253 2.32224454E-08
  1 254 2.35076593E-08
  1 255 2.40632723E-08
  1 256 2.45412486E-08
  1 257 2.49195643E-08
  1 258 2.56431777E-08
  1 259 2.63482165E-08
  1 260 2.73492600E-08
  1 261 2.82600660E-08
  1 262 2.89623022E-08
  1 263 2.95816809E-08
  1 264 3.00056048E-08
  1 265 3.02631708E-08
  1 266 3.02663763E-08
  1 267 3.03320151E-08
  1 268 3.00926273E-08
  1 269 2.95967686E-08
  1 270 2.82978474E-08
  1 271 2.68949506E-08
  1 272 2.53890899E-08
  1 273 2.32354796E-08
  1 274 2.14358100E-08
  1 275 1.99439319E-08
  1 276 1.86390244E-08
  1 277 1.74493964E-08
  1 278 1.65249187E-08
  1 279 1.54146758E-08
  1 280 1.40274092E-08
  1 281 1.27922413E-08
  1 282 1.18332576E-08
  1 283 1.05903563E-08
  1 284 9.70348634E-09
  1 285 9.28124201E-09
  1 286 8.84560687E-09
  1 287 8.75429410E-09
  1 288 9.25226833E-09
  1 289 9.80876822E-09
  1 290 1.01742767E-08
  1 291 1.02637945E-08
  1 292 1.00848889E-08
  1 293 1.00999676E-08
  1 294 1.03081055E-08
  1 295 1.08786159E-08
  1 296 1.17688504E-08
  1 297 1.22333845E-08
  1 298 1.26565330E-08
  1 299 1.32191736E-08
  1 300 1.37981695E-08
  1 301 1.42699843E-08
  1 302 1.47981246E-08
  1 303 1.50712348E-08
  1 304 1.54270454E-08
  1 305 1.57611098E-08
  1 306 1.64802056E-08
  1 307 1.72843617E-08
  1 308 1.82871702E-08
  1 309 1.93295770E-08
  1 310 2.01854528E-08
  1 311 2.06323431E-08
  1 312 2.12948002E-08
  1 313 2.20809106E-08
  1 314 2.31991343E-08
  1 315 2.39084218E-08
  1 316 2.48004438E-08
  1 317 2.56639012E-08
  1 318 2.60923885E-08
  1 319 2.63000528E-08
  1 320 2.62485846E-08
  1 321 2.58204423E-08
  1 322 2.49809230E-08
  1 323 2.40160414E-08
  1 324 2.31564052E-08
  1 325 2.24740330E-08
  1 326 2.17126689E-08
  1 327 2.12574987E-08
  1 328 2.08145709E-08
  1 329 2.06756339E-08
  1 330 2.05929964E-08
  1 331 2.06732593E-08
  1 332 2.05619749E-08
  1 333 1.96609900E-08
  1 334 1.91497845E-08
  1 335 1.84732853E-08
  1 336 1.75755109E-08
  1 337 1.71867195E-08
  1 338 1.68618942E-08
  1 339 1.66733111E-08
  1 340 1.64550512E-08
  1 341 1.71884074E-08
  1 342 1.83767104E-08
  1 343 1.93619372E-08
  1 344 2.01872735E-08
  1 345 2.07629866E-08
  1 346 2.12711658E-08
  1 347 2.18140612E-08
  1 348 2.19497077E-08
  1 349 2.19698993E-08
  1 350 2.14724574E-08
  1 351 2.08381123E-08
  1 352 1.95488825E-08
  1 353 1.83814376E-08
  1 354 1.70893167E-08
  1 355 1.61977630E-08
  1 356 1.56019516E-08
  1 357 1.49724810E-08
  1 358 1.47968231E-08
  1 359 1.44942654E-08
  1 360 1.40021342E-08
  1 361 1.31526336E-08
  1 362 1.22326689E-08
  1 363 1.12319815E-08
  1 364 1.01671465E-08
  1 365 9.64099129E-09
  1 366 9.28356960E-09
  1 367 9.08119389E-09
  1 368 8.79601508E-09
  1 369 8.67201386E-09
  1 370 8.93471829E-09
  1 371 9.89319091E-09
  1 372 1.10139463E-08
  1 373 1.20405180E-08
  1 374 1.26808167E-08
  1 375 1.30929589E-08
  1 376 1.35981388E-08
  1 377 1.43305406E-08
  1 378 1.49202226E-08
  1 379 1.52079857E-08
  1 380 1.51927741E-08
  1 381 1.55890082E-08
  1 382 1.63978925E-08
  1 383 1.73190338E-08
  1 384 1.79280457E-08
  1 385 1.81591798E-08
  1 386 1.82363398E-08
  1 387 1.80029350E-08
  1 388 1.81073751E-08
  1 389 1.87679078E-08
  1 390 1.98424562E-08
  1 391 2.07094212E-08
  1 392 2.18305287E-08
  1 393 2.26432173E-08
  1 394 2.31229934E-08
  1 395 2.31182423E-08
  1 396 2.33449637E-08
  1 397 2.37798654E-08
  1 398 2.37626455E-08
  1 399 2.40424374E-08
  1 400 2.44965355E-08
  1 401 1.44590732E-08
  1 402 1.42551215E-08
  1 403 1.41553526E-08
  1 404 1.47295616E-08
  1 405 1.51142033E-08
  1 406 1.56032596E-08
  1 407 1.60708004E-08
  1 408 1.62969623E-08
  1 409 1.57512167E-08
  1 410 1.52718367E-08
  1 411 1.42993710E-08
  1 412 1.34175592E-08
  1 413 1.26639020E-08
  1 414 1.23088729E-08
  1 415 1.18624024E-08
  1 416 1.13312478E-08
  1 417 1.07811162E-08
  1 418 1.03576583E-08
  1 419 1.01092885E-08
  1 420 1.02879710E-08
  1 421 1.09388845E-08
  1 422 1.20157910E-08
  1 423 1.26132309E-08
  1 424 1.30932590E-08
  1 425 1.39851914E-08
  1 426 1.51105063E-08
  1 427 1.56497006E-08
  1 428 1.56497087E-08
  1 429 1.55418573E-08
  1 430 1.49483980E-08
  1 431 1.46529278E-08
  1 432 1.43274642E-08
  1 433 1.41194948E-08
  1 434 1.42362898E-08
  1 435 1.44226044E-08
  1 436 1.51832552E-08
  1 437 1.62123343E-08
  1 438 1.69018601E-08
  1 439 1.78573188E-08
  1 440 1.88333998E-08
  1 441 1.98276052E-08
  1 442 2.09538399E-08
  1 443 2.19689220E-08
  1 444 2.26900797E-08
  1 445 2.29416725E-08
  1 446 2.32784931E-08
  1 447 2.36781529E-08
  1 448 2.38925464E-08
  1 449 2.38406774E-08
  1 450 2.33940539E-08
  1 451 2.33323454E-08
  1 452 2.35220778E-08
  1 453 2.32507007E-08
  1 454 2.34264372E-08
  1 455 2.38472444E-08
  1 456 2.43961097E-08
  1 457 2.47394938E-08
  1 458 2.53588361E-08
  1 459 2.61834120E-08
  1 460 2.71147614E-08
  1 461 2.80241723E-08
  1 462 2.88357997E-08
  1 463 2.95645109E-08
  1 464 2.99422529E-08
  1 465 3.03348626E-08
  1 466 3.03634260E-08
  1 467 3.04009292E-08
  1 468 3.04765607E-08
  1 469 2.99170369E-08
  1 470 2.88714593E-08
  1 471 2.74179402E-08
  1 472 2.60703059E-08
  1 473 2.41564873E-08
  1 474 2.21810993E-08
  1 475 2.05698346E-08
  1 476 1.91894963E-08
  1 477 1.80374585E-08
  1 478 1.70574760E-08
  1 479 1.60176608E-08
  1 480 1.46808425E-08
  1 481 1.33131101E-08
  1 482 1.22197455E-08
  1 483 1.09945711E-08
  1 484 9.94192993E-09
  1 485 9.45695940E-09
  1 486 8.93166839E-09
  1 487 8.84219136E-09
  1 488 9.11106658E-09
  1 489 9.59757907E-09
  1 490 1.00562694E-08
  1 491 1.03709619E-08
  1 492 1.03122873E-08
  1 493 1.01849719E-08
  1 494 1.03051259E-08
  1 495 1.06950966E-08
  1 496 1.15273253E-08
  1 497 1.21672957E-08
  1 498 1.26741006E-08
  1 499 1.31605745E-08
  1 500 1.37361879E-08
  1 501 1.42711602E-08
  1 502 1.48367184E-08
  1 503 1.52119125E-08
  1 504 1.54805400E-08
  1 505 1.57755391E-08
  1 506 1.63214033E-08
  1 507 1.70793167E-08
  1 508 1.79907983E-08
  1 509 1.89072661E-08
  1 510 1.99253092E-08
  1 511 2.04719842E-08
  1 512 2.11266917E-08
  1 513 2.17463103E-08
  1 514 2.27960825E-08
  1 515 2.36456873E-08
  1 516 2.43265629E-08
  1 517 2.53195793E-08
  1 518 2.58481888E-08
  1 519 2.61935001E-08
  1 520 2.61733199E-08
  1 521 2.59878599E-08
  1 522 2.52821221E-08
  1 523 2.42170538E-08
  1 524 2.32887176E-08
  1 525 2.25835038E-08
  1 526 2.17913809E-08
  1 527 2.12032631E-08
  1 528 2.08126831E-08
  1 529 2.05045612E-08
  1 530 2.04039957E-08
  1 531 2.04210755E-08
  1 532 2.04337072E-08
  1 533 1.98008483E-08
  1 534 1.90061100E-08
  1 535 1.84856296E-08
  1 536 1.75620501E-08
  1 537 1.70079126E-08
  1 538 1.66814635E-08
  1 539 1.64785001E-08
  1 540 1.62856581E-08
  1 541 1.65747368E-08
  1 542 1.77053047E-08
  1 543 1.88264507E-08
  1 544 1.97580157E-08
  1 545 2.05444630E-08
  1 546 2.09680512E-08
  1 547 2.16334804E-08
  1 548 2.18006021E-08
  1 549 2.19323895E-08
  1 550 2.15354845E-08
  1 551 2.11201754E-08
  1 552 1.99946673E-08
  1 553 1.87753741E-08
  1 554 1.73532338E-08
  1 555 1.63503669E-08
  1 556 1.57138881E-08
  1 557 1.49290009E-08
  1 558 1.44948217E-08
  1 559 1.43623571E-08
  1 560 1.40209016E-08
  1 561 1.33983681E-08
  1 562 1.23718779E-08
  1 563 1.14812139E-08
  1 564 1.03518607E-08
  1 565 9.54684867E-09
  1 566 9.16963508E-09
  1 567 8.98533518E-09
  1 568 8.79526362E-09
  1 569 8.68380633E-09
  1 570 8.83842520E-09
  1 571 9.51487096E-09
  1 572 1.05836692E-08
  1 573 1.17209572E-08
  1 574 1.24209320E-08
  1 575 1.30082883E-08
  1 576 1.33939882E-08
  1 577 1.40154405E-08
  1 578 1.46994013E-08
  1 579 1.51022331E-08
  1 580 1.51353291E-08
  1 581 1.54596217E-08
  1 582 1.60637388E-08
  1 583 1.68683825E-08
  1 584 1.76751314E-08
  1 585 1.79467262E-08
  1 586 1.80565166E-08
  1 587 1.78742104E-08
  1 588 1.79206386E-08
  1 589 1.84062822E-08
  1 590 1.94354234E-08
  1 591 2.03497910E-08
  1 592 2.13933160E-08
  1 593 2.22641478E-08
  1 594 2.28754912E-08
  1 595 2.31310049E-08
  1 596 2.31237486E-08
  1 597 2.36007586E-08
  1 598 2.36267604E-08
  1 599 2.39740376E-08
  1 600 2.43095903E-08
  1 601 1.45275826E-08
  1 602 1.44352043E-08
  1 603 1.43531911E-08
  1 604 1.47499327E-08
  1 605 1.51722888E-08
  1 606 1.55825000E-08
  1 607 1.60803953E-08
  1 608 1.65348667E-08
  1 609 1.62788249E-08
  1 610 1.57840981E-08
  1 611 1.48261366E-08
  1 612 1.39031099E-08
  1 613 1.30027941E-08
  1 614 1.24848148E-08
  1 615 1.22394058E-08
  1 616 1.16545480E-08
  1 617 1.11602383E-08
  1 618 1.06588267E-08
  1 619 1.04207038E-08
  1 620 1.04835454E-08
  1 621 1.09784441E-08
  1 622 1.19854929E-08
  1 623 1.29501927E-08
  1 624 1.34473923E-08
  1 625 1.40853892E-08
  1 626 1.51101157E-08
  1 627 1.59159496E-08
  1 628 1.60724955E-08
  1 629 1.59274342E-08
  1 630 1.55319876E-08
  1 631 1.51718446E-08
  1 632 1.48766585E-08
  1 633 1.44351063E-08
  1 634 1.44565489E-08
  1 635 1.45793739E-08
  1 636 1.50513484E-08
  1 637 1.59219101E-08
  1 638 1.67825732E-08
  1 639 1.75253455E-08
  1 640 1.85760342E-08
  1 641 1.95565129E-08
  1 642 2.05873253E-08
  1 643 2.16978960E-08
  1 644 2.25181380E-08
  1 645 2.29646250E-08
  1 646 2.31775291E-08
  1 647 2.35819331E-08
  1 648 2.38417874E-08
  1 649 2.39690607E-08
  1 650 2.35961105E-08
  1 651 2.32861538E-08
  1 652 2.34601918E-08
  1 653 2.33371975E-08
  1 654 2.33943506E-08
  1 655 2.37028652E-08
  1 656 2.43584963E-08
  1 657 2.45362790E-08
  1 658 2.51137805E-08
  1 659 2.60090917E-08
  1 660 2.68854865E-08
  1 661 2.77758299E-08
  1 662 2.87429361E-08
  1 663 2.94933973E-08
  1 664 2.99969680E-08
  1 665 3.03242568E-08
  1 666 3.04879463E-08
  1 667 3.04129011E-08
  1 668 3.06378971E-08
  1 669 3.02359196E-08
  1 670 2.94208450E-08
  1 671 2.80073764E-08
  1 672 2.65711391E-08
  1 673 2.50289120E-08
  1 674 2.30433288E-08
  1 675 2.12395201E-08
  1 676 1.97818183E-08
  1 677 1.85559736E-08
  1 678 1.75628892E-08
  1 679 1.66447389E-08
  1 680 1.54375872E-08
  1 681 1.38508840E-08
  1 682 1.26185168E-08
  1 683 1.14453496E-08
  1 684 1.02413036E-08
  1 685 9.55599300E-09
  1 686 9.20147785E-09
  1 687 8.99427734E-09
  1 688 9.06651673E-09
  1 689 9.47015187E-09
  1 690 9.94560477E-09
  1 691 1.03440472E-08
  1 692 1.04838935E-08
  1 693 1.03481663E-08
  1 694 1.03776096E-08
  1 695 1.06230131E-08
  1 696 1.13009501E-08
  1 697 1.20813421E-08
  1 698 1.27174959E-08
  1 699 1.31704538E-08
  1 700 1.38105127E-08
  1 701 1.43461076E-08
  1 702 1.48127778E-08
  1 703 1.53066057E-08
  1 704 1.56029590E-08
  1 705 1.58126498E-08
  1 706 1.61752432E-08
  1 707 1.69357185E-08
  1 708 1.77321150E-08
  1 709 1.86710941E-08
  1 710 1.96761673E-08
  1 711 2.03762215E-08
  1 712 2.09318884E-08
  1 713 2.15550591E-08
  1 714 2.23549452E-08
  1 715 2.33212441E-08
  1 716 2.38862316E-08
  1 717 2.49122749E-08
  1 718 2.56263187E-08
  1 719 2.60264102E-08
  1 720 2.61665929E-08
  1 721 2.60254888E-08
  1 722 2.55176874E-08
  1 723 2.44832911E-08
  1 724 2.35224053E-08
  1 725 2.26364156E-08
  1 726 2.19905144E-08
  1 727 2.12201184E-08
  1 728 2.08252230E-08
  1 729 2.03620462E-08
  1 730 2.02662803E-08
  1 731 2.02362595E-08
  1 732 2.01913750E-08
  1 733 1.98661217E-08
  1 734 1.89278397E-08
  1 735 1.84819407E-08
  1 736 1.76065377E-08
  1 737 1.68863744E-08
  1 738 1.64583638E-08
  1 739 1.62412887E-08
  1 740 1.62106508E-08
  1 741 1.60727136E-08
  1 742 1.69698768E-08
  1 743 1.82628640E-08
  1 744 1.91966617E-08
  1 745 2.01185112E-08
  1 746 2.06545052E-08
  1 747 2.14037935E-08
  1 748 2.17378439E-08
  1 749 2.18126349E-08
  1 750 2.15885833E-08
  1 751 2.12438833E-08
  1 752 2.04283505E-08
  1 753 1.91946939E-08
  1 754 1.77233497E-08
  1 755 1.65332744E-08
  1 756 1.57482235E-08
  1 757 1.50115693E-08
  1 758 1.42870754E-08
  1 759 1.40388162E-08
  1 760 1.39300659E-08
  1 761 1.35278397E-08
  1 762 1.25471515E-08
  1 763 1.16156495E-08
  1 764 1.06063450E-08
  1 765 9.56619792E-09
  1 766 9.09433741E-09
  1 767 8.93783301E-09
  1 768 8.82802074E-09
  1 769 8.70298835E-09
  1 770 8.77723162E-09
  1 771 9.22185998E-09
  1 772 1.01634107E-08
  1 773 1.12976657E-08
  1 774 1.22210208E-08
  1 775 1.28431067E-08
  1 776 1.32621988E-08
  1 777 1.36657586E-08
  1 778 1.44564104E-08
  1 779 1.48907103E-08
  1 780 1.51085007E-08
  1 781 1.54205132E-08
  1 782 1.57480786E-08
  1 783 1.64272371E-08
  1 784 1.73629343E-08
  1 785 1.76956584E-08
  1 786 1.78989262E-08
  1 787 1.77979267E-08
  1 788 1.77213411E-08
  1 789 1.81411700E-08
  1 790 1.89940420E-08
  1 791 2.00848165E-08
  1 792 2.08690736E-08
  1 793 2.19022059E-08
  1 794 2.26713553E-08
  1 795 2.30322455E-08
  1 796 2.29260456E-08
  1 797 2.33719307E-08
  1 798 2.35854935E-08
  1 799 2.37034282E-08
  1 800 2.41981823E-08
  1 801 1.47266591E-08
  1 802 1.45822998E-08
  1 803 1.45539062E-08
  1 804 1.47961213E-08
  1 805 1.52769201E-08
  1 806 1.55795532E-08
  1 807 1.60946299E-08
  1 808 1.66210241E-08
  1 809 1.67738574E-08
  1 810 1.62589456E-08
  1 811 1.54555908E-08
  1 812 1.44222746E-08
  1 813 1.34833504E-08
  1 814 1.27375990E-08
  1 815 1.24449757E-08
  1 816 1.21052688E-08
  1 817 1.15688979E-08
  1 818 1.10090244E-08
  1 819 1.07260239E-08
  1 820 1.06983870E-08
  1 821 1.10760361E-08
  1 822 1.19167206E-08
  1 823 1.31243259E-08
  1 824 1.39088381E-08
  1 825 1.43365145E-08
  1 826 1.51684793E-08
  1 827 1.60943420E-08
  1 828 1.64457077E-08
  1 829 1.63210155E-08
  1 830 1.61160709E-08
  1 831 1.56098426E-08
  1 832 1.53891036E-08
  1 833 1.49251842E-08
  1 834 1.47708850E-08
  1 835 1.47603624E-08
  1 836 1.49460626E-08
  1 837 1.56769207E-08
  1 838 1.65895251E-08
  1 839 1.72466705E-08
  1 840 1.82650911E-08
  1 841 1.93090258E-08
  1 842 2.02922916E-08
  1 843 2.13960653E-08
  1 844 2.22483795E-08
  1 845 2.29998939E-08
  1 846 2.30751781E-08
  1 847 2.34397503E-08
  1 848 2.38588465E-08
  1 849 2.40347092E-08
  1 850 2.37679698E-08
  1 851 2.33028726E-08
  1 852 2.33627123E-08
  1 853 2.34025977E-08
  1 854 2.33606278E-08
  1 855 2.35734624E-08
  1 856 2.41398024E-08
  1 857 2.43994821E-08
  1 858 2.48029520E-08
  1 859 2.56500449E-08
  1 860 2.65682400E-08
  1 861 2.75489513E-08
  1 862 2.85045887E-08
  1 863 2.92839450E-08
  1 864 2.99776651E-08
  1 865 3.02753053E-08
  1 866 3.05078045E-08
  1 867 3.04940595E-08
  1 868 3.06095650E-08
  1 869 3.04479195E-08
  1 870 2.97890775E-08
  1 871 2.85713551E-08
  1 872 2.70516028E-08
  1 873 2.56728046E-08
  1 874 2.38357808E-08
  1 875 2.18976126E-08
  1 876 2.04436471E-08
  1 877 1.90714926E-08
  1 878 1.80202296E-08
  1 879 1.72030529E-08
  1 880 1.60543710E-08
  1 881 1.44669494E-08
  1 882 1.30361760E-08
  1 883 1.18422755E-08
  1 884 1.05134460E-08
  1 885 9.68183207E-09
  1 886 9.34755724E-09
  1 887 9.06208485E-09
  1 888 9.05741056E-09
  1 889 9.47277653E-09
  1 890 9.80684652E-09
  1 891 1.02758186E-08
  1 892 1.05412241E-08
  1 893 1.05472612E-08
  1 894 1.04753708E-08
  1 895 1.06215693E-08
  1 896 1.11229670E-08
  1 897 1.20025581E-08
  1 898 1.26289814E-08
  1 899 1.32216732E-08
  1 900 1.38675332E-08
  1 901 1.43656753E-08
  1 902 1.47622819E-08
  1 903 1.53082327E-08
  1 904 1.55997765E-08
  1 905 1.58155235E-08
  1 906 1.60797465E-08
  1 907 1.68144577E-08
  1 908 1.75401247E-08
  1 909 1.85418150E-08
  1 910 1.93472980E-08
  1 911 2.01467705E-08
  1 912 2.07376350E-08
  1 913 2.13892309E-08
  1 914 2.19017829E-08
  1 915 2.29455722E-08
  1 916 2.36058585E-08
  1 917 2.43822644E-08
  1 918 2.53131365E-08
  1 919 2.57963998E-08
  1 920 2.60971116E-08
  1 921 2.59699097E-08
  1 922 2.56526095E-08
  1 923 2.47852802E-08
  1 924 2.37303790E-08
  1 925 2.26404994E-08
  1 926 2.20602827E-08
  1 927 2.13189574E-08
  1 928 2.07364347E-08
  1 929 2.03778543E-08
  1 930 2.00791488E-08
  1 931 1.99662298E-08
  1 932 1.99103995E-08
  1 933 1.97999319E-08
  1 934 1.89440717E-08
  1 935 1.84016674E-08
  1 936 1.76607100E-08
  1 937 1.67167879E-08
  1 938 1.62436085E-08
  1 939 1.60061999E-08
  1 940 1.60543474E-08
  1 941 1.57916136E-08
  1 942 1.63950906E-08
  1 943 1.75337585E-08
  1 944 1.86098373E-08
  1 945 1.96756343E-08
  1 946 2.03868360E-08
  1 947 2.10902940E-08
  1 948 2.15890538E-08
  1 949 2.17096932E-08
  1 950 2.16224747E-08
  1 951 2.12865467E-08
  1 952 2.07538825E-08
  1 953 1.96865269E-08
  1 954 1.81759977E-08
  1 955 1.67045625E-08
  1 956 1.57737640E-08
  1 957 1.51154025E-08
  1 958 1.42314130E-08
  1 959 1.37456071E-08
  1 960 1.38205107E-08
  1 961 1.35021224E-08
  1 962 1.28128544E-08
  1 963 1.18152575E-08
  1 964 1.08708585E-08
  1 965 9.78505671E-09
  1 966 8.99583399E-09
  1 967 8.86214603E-09
  1 968 8.82417267E-09
  1 969 8.67828879E-09
  1 970 8.71778313E-09
  1 971 9.03372120E-09
  1 972 9.80328075E-09
  1 973 1.08577411E-08
  1 974 1.19779149E-08
  1 975 1.25911415E-08
  1 976 1.31379232E-08
  1 977 1.34523058E-08
  1 978 1.41513097E-08
  1 979 1.47395989E-08
  1 980 1.50727857E-08
  1 981 1.53928379E-08
  1 982 1.56017946E-08
  1 983 1.62596008E-08
  1 984 1.69988079E-08
  1 985 1.75170842E-08
  1 986 1.76931385E-08
  1 987 1.76745910E-08
  1 988 1.75874251E-08
  1 989 1.79134208E-08
  1 990 1.86436160E-08
  1 991 1.97373373E-08
  1 992 2.04864485E-08
  1 993 2.15787097E-08
  1 994 2.23368531E-08
  1 995 2.28241015E-08
  1 996 2.29291765E-08
  1 997 2.30781517E-08
  1 998 2.34996364E-08
  1 999 2.35018673E-08
  1 1000 2.40044588E-08
  1 1001 1.49551271E-08
  1 1002 1.47055759E-08
  1 1003 1.47379766E-08
  1 1004 1.48611275E-08
  1 1005 1.52762420E-08
  1 1006 1.56095403E-08
  1 1007 1.60770302E-08
  1 1008 1.65332074E-08
  1 1009 1.70770278E-08
  1 1010 1.68098773E-08
  1 1011 1.60479719E-08
  1 1012 1.49215667E-08
  1 1013 1.39524545E-08
  1 1014 1.30581144E-08
  1 1015 1.26028883E-08
  1 1016 1.24053743E-08
  1 1017 1.19457960E-08
  1 1018 1.13952054E-08
  1 1019 1.10262841E-08
  1 1020 1.09560041E-08
  1 1021 1.12361957E-08
  1 1022 1.18421082E-08
  1 1023 1.30435417E-08
  1 1024 1.41289793E-08
  1 1025 1.46991321E-08
  1 1026 1.52317486E-08
  1 1027 1.60994742E-08
  1 1028 1.67218342E-08
  1 1029 1.67281344E-08
  1 1030 1.64712867E-08
  1 1031 1.59945585E-08
  1 1032 1.58587960E-08
  1 1033 1.54451634E-08
  1 1034 1.50638614E-08
  1 1035 1.50058957E-08
  1 1036 1.49680925E-08
  1 1037 1.54951468E-08
  1 1038 1.62541721E-08
  1 1039 1.70306595E-08
  1 1040 1.78556779E-08
  1 1041 1.89668717E-08
  1 1042 1.99218719E-08
  1 1043 2.10411318E-08
  1 1044 2.19070765E-08
  1 1045 2.28180573E-08
  1 1046 2.30556404E-08
  1 1047 2.31568542E-08
  1 1048 2.37501180E-08
  1 1049 2.39674869E-08
  1 1050 2.38729887E-08
  1 1051 2.33875271E-08
  1 1052 2.32146110E-08
  1 1053 2.33432136E-08
  1 1054 2.33079484E-08
  1 1055 2.35184257E-08
  1 1056 2.38882805E-08
  1 1057 2.43437867E-08
  1 1058 2.44749258E-08
  1 1059 2.52710055E-08
  1 1060 2.62292133E-08
  1 1061 2.72692115E-08
  1 1062 2.81637664E-08
  1 1063 2.90874309E-08
  1 1064 2.98589244E-08
  1 1065 3.02213889E-08
  1 1066 3.04564135E-08
  1 1067 3.05450354E-08
  1 1068 3.05072227E-08
  1 1069 3.05798013E-08
  1 1070 2.99165611E-08
  1 1071 2.90163790E-08
  1 1072 2.74949476E-08
  1 1073 2.61359183E-08
  1 1074 2.45232297E-08
  1 1075 2.26156731E-08
  1 1076 2.09662466E-08
  1 1077 1.96161600E-08
  1 1078 1.83529754E-08
  1 1079 1.76125076E-08
  1 1080 1.66197081E-08
  1 1081 1.52168453E-08
  1 1082 1.34913715E-08
  1 1083 1.22153341E-08
  1 1084 1.09329319E-08
  1 1085 9.91418885E-09
  1 1086 9.39004913E-09
  1 1087 9.16600372E-09
  1 1088 9.10264069E-09
  1 1089 9.41881332E-09
  1 1090 9.73267578E-09
  1 1091 1.00585822E-08
  1 1092 1.05361285E-08
  1 1093 1.06540302E-08
  1 1094 1.05618121E-08
  1 1095 1.06608540E-08
  1 1096 1.10320270E-08
  1 1097 1.18711446E-08
  1 1098 1.25353414E-08
  1 1099 1.33041074E-08
  1 1100 1.38667173E-08
  1 1101 1.44588217E-08
  1 1102 1.49364556E-08
  1 1103 1.52673827E-08
  1 1104 1.56618882E-08
  1 1105 1.59392009E-08
  1 1106 1.60602412E-08
  1 1107 1.65993172E-08
  1 1108 1.72811538E-08
  1 1109 1.82882217E-08
  1 1110 1.90025921E-08
  1 1111 1.98985367E-08
  1 1112 2.05365573E-08
  1 1113 2.11934134E-08
  1 1114 2.16424910E-08
  1 1115 2.25367948E-08
  1 1116 2.33773092E-08
  1 1117 2.39072664E-08
  1 1118 2.49545915E-08
  1 1119 2.55546811E-08
  1 1120 2.59576700E-08
  1 1121 2.59946633E-08
  1 1122 2.56867452E-08
  1 1123 2.50465372E-08
  1 1124 2.39541127E-08
  1 1125 2.28537063E-08
  1 1126 2.20132162E-08
  1 1127 2.14732903E-08
  1 1128 2.07232907E-08
  1 1129 2.03760248E-08
  1 1130 1.99705513E-08
  1 1131 1.97725289E-08
  1 1132 1.97716290E-08
  1 1133 1.96327158E-08
  1 1134 1.89711194E-08
  1 1135 1.82848796E-08
  1 1136 1.76992681E-08
  1 1137 1.66902623E-08
  1 1138 1.60839768E-08
  1 1139 1.58037237E-08
  1 1140 1.57670208E-08
  1 1141 1.56899074E-08
  1 1142 1.59382415E-08
  1 1143 1.68669503E-08
  1 1144 1.81104040E-08
  1 1145 1.91716308E-08
  1 1146 2.00927729E-08
  1 1147 2.06739282E-08
  1 1148 2.14271081E-08
  1 1149 2.16784612E-08
  1 1150 2.15900428E-08
  1 1151 2.12936858E-08
  1 1152 2.09114525E-08
  1 1153 2.00350252E-08
  1 1154 1.86852306E-08
  1 1155 1.70810321E-08
  1 1156 1.59636767E-08
  1 1157 1.52074317E-08
  1 1158 1.43648458E-08
  1 1159 1.36454490E-08
  1 1160 1.35027777E-08
  1 1161 1.34589906E-08
  1 1162 1.30099106E-08
  1 1163 1.20267588E-08
  1 1164 1.10696003E-08
  1 1165 1.00650558E-08
  1 1166 9.04634224E-09
  1 1167 8.77870945E-09
  1 1168 8.77703147E-09
  1 1169 8.66084175E-09
  1 1170 8.70632440E-09
  1 1171 8.92503883E-09
  1 1172 9.54229479E-09
  1 1173 1.04521101E-08
  1 1174 1.15863773E-08
  1 1175 1.24146764E-08
  1 1176 1.30025052E-08
  1 1177 1.33965790E-08
  1 1178 1.38922080E-08
  1 1179 1.46389187E-08
  1 1180 1.50733649E-08
  1 1181 1.53920429E-08
  1 1182 1.56344261E-08
  1 1183 1.60793276E-08
  1 1184 1.66191760E-08
  1 1185 1.72630929E-08
  1 1186 1.75114321E-08
  1 1187 1.75032842E-08
  1 1188 1.75591801E-08
  1 1189 1.77031235E-08
  1 1190 1.83533094E-08
  1 1191 1.93396098E-08
  1 1192 2.02415535E-08
  1 1193 2.11077667E-08
  1 1194 2.19502970E-08
  1 1195 2.27011560E-08
  1 1196 2.28875366E-08
  1 1197 2.28707940E-08
  1 1198 2.33534850E-08
  1 1199 2.34163092E-08
  1 1200 2.37097414E-08
  1 1201 1.53538325E-08
  1 1202 1.48570104E-08
  1 1203 1.48497074E-08
  1 1204 1.49967228E-08
  1 1205 1.54214886E-08
  1 1206 1.56990866E-08
  1 1207 1.60687297E-08
  1 1208 1.64671232E-08
  1 1209 1.71971640E-08
  1 1210 1.73200084E-08
  1 1211 1.66085459E-08
  1 1212 1.55662968E-08
  1 1213 1.44963299E-08
  1 1214 1.34379354E-08
  1 1215 1.29790851E-08
  1 1216 1.26466948E-08
  1 1217 1.23558945E-08
  1 1218 1.18435380E-08
  1 1219 1.13305153E-08
  1 1220 1.13005801E-08
  1 1221 1.14456315E-08
  1 1222 1.19676650E-08
  1 1223 1.29137308E-08
  1 1224 1.42765675E-08
  1 1225 1.51153433E-08
  1 1226 1.54712477E-08
  1 1227 1.62396601E-08
  1 1228 1.69801000E-08
  1 1229 1.71329733E-08
  1 1230 1.68426475E-08
  1 1231 1.64868198E-08
  1 1232 1.63395528E-08
  1 1233 1.59184903E-08
  1 1234 1.55769425E-08
  1 1235 1.53738082E-08
  1 1236 1.51276705E-08
  1 1237 1.55085648E-08
  1 1238 1.59692554E-08
  1 1239 1.68659496E-08
  1 1240 1.75983247E-08
  1 1241 1.86960713E-08
  1 1242 1.97114034E-08
  1 1243 2.06985542E-08
  1 1244 2.15837495E-08
  1 1245 2.25167128E-08
  1 1246 2.29867052E-08
  1 1247 2.29586181E-08
  1 1248 2.35764430E-08
  1 1249 2.39501204E-08
  1 1250 2.39660114E-08
  1 1251 2.36321990E-08
  1 1252 2.32717023E-08
  1 1253 2.33399464E-08
  1 1254 2.32589168E-08
  1 1255 2.34287541E-08
  1 1256 2.36871489E-08
  1 1257 2.42029707E-08
  1 1258 2.42927879E-08
  1 1259 2.49221488E-08
  1 1260 2.58271271E-08
  1 1261 2.69676724E-08
  1 1262 2.79201237E-08
  1 1263 2.88594809E-08
  1 1264 2.96044293E-08
  1 1265 3.01738373E-08
  1 1266 3.03744718E-08
  1 1267 3.04930846E-08
  1 1268 3.04652861E-08
  1 1269 3.05977625E-08
  1 1270 3.00781401E-08
  1 1271 2.93770065E-08
  1 1272 2.80348464E-08
  1 1273 2.66589592E-08
  1 1274 2.50844601E-08
  1 1275 2.33689411E-08
  1 1276 2.15379061E-08
  1 1277 2.02192738E-08
  1 1278 1.88823467E-08
  1 1279 1.78848394E-08
  1 1280 1.71960834E-08
  1 1281 1.59333847E-08
  1 1282 1.41258531E-08
  1 1283 1.26653065E-08
  1 1284 1.13427811E-08
  1 1285 1.02179746E-08
  1 1286 9.48594042E-09
  1 1287 9.30239917E-09
  1 1288 9.17769318E-09
  1 1289 9.32574405E-09