# File generated by Flopy version 3.6.0 on 03/18/2025 at 15:16:57.
BEGIN options
  SAVE_FLOWS
END options

BEGIN packages
  disv6  Reference.disv  disv
  oc6  Reference.oc  oc
  sto6  Reference.sto  sto
  npf6  Reference.npf  npf
  ic6  Reference.ic  ic
  drn6  Reference.drn  drn_0
  rch6  Reference.rch  rch_0
  wel6  Reference.wel  wel_0
  riv6  Reference.riv  riv_0
  chd6  Reference.chd  chd_0
END packages

